/batch
/config,noeldb,1     ! force off writing results to database
*get,_wallstrt,active,,time,wall
! ANSYS input file written by Workbench version 2020 R2
! File used for geometry attach: C:\Users\robin\Documents\cantilever_simple_files\dp0\SYS\DM\SYS.agdb
/title,cantilever_simple_edge_load--Static Structural (A5)
*DIM,_wb_ProjectScratch_dir,string,248
_wb_ProjectScratch_dir(1) = 'C:\Users\robin\Documents\cantilever_simple_edge_load_files\dp0\SYS\MECH\'
*DIM,_wb_SolverFiles_dir,string,248
_wb_SolverFiles_dir(1) = 'C:\Users\robin\Documents\cantilever_simple_edge_load_files\dp0\SYS\MECH\'
*DIM,_wb_userfiles_dir,string,248
_wb_userfiles_dir(1) = 'C:\Users\robin\Documents\cantilever_simple_edge_load_files\user_files\'
/com,--- Data in consistent MKS units. See Solving Units in the help system for more information.
/units,MKS
/nopr
/wb,file,start              !  signify a WB generated input file
/prep7
! Turn off shape checking because checks already performed inside WB mesher.
! See help system for more information.
SHPP,OFF,,NOWARN
/nolist
etcon,set             ! allow ANSYS to choose best KEYOP's for 180x elements
/com,*********** Nodes for the whole assembly ***********
nblock,3,,392
(1i9,3e20.9e3)
        1    -1.250000000E-01     1.000000000E-01     2.000000000E-01
        2    -2.500000000E-01     1.000000000E-01     2.000000000E-01
        3    -3.750000000E-01     1.000000000E-01     2.000000000E-01
        4    -5.000000000E-01     1.000000000E-01     2.000000000E-01
        5    -6.250000000E-01     1.000000000E-01     2.000000000E-01
        6    -7.500000000E-01     1.000000000E-01     2.000000000E-01
        7    -8.750000000E-01     1.000000000E-01     2.000000000E-01
        8    -1.250000000E-01     1.000000000E-01     1.000000000E-01
        9    -2.500000000E-01     1.000000000E-01     1.000000000E-01
       10    -3.750000000E-01     1.000000000E-01     1.000000000E-01
       11    -5.000000000E-01     1.000000000E-01     1.000000000E-01
       12    -6.250000000E-01     1.000000000E-01     1.000000000E-01
       13    -7.500000000E-01     1.000000000E-01     1.000000000E-01
       14    -8.750000000E-01     1.000000000E-01     1.000000000E-01
       15    -8.750000000E-01    -1.071565949E-16     1.000000000E-01
       16    -7.500000000E-01    -9.184850994E-17     1.000000000E-01
       17    -6.250000000E-01    -7.654042495E-17     1.000000000E-01
       18    -5.000000000E-01    -6.123233996E-17     1.000000000E-01
       19    -3.750000000E-01    -4.592425497E-17     1.000000000E-01
       20    -2.500000000E-01    -3.061616998E-17     1.000000000E-01
! ... 338 like lines cut
/wb,elem,start            !  set before creation of elements
/com,*********** Elements for Body 1 "Solid" ***********
et,1,186
keyo,1,2,1          ! set full integration on SOLID186
eblock,19,solid,,48
(19i9)
        1        1        1        1        0        0        0        0       20        0        1        1       73       80       81       28       75       79       88
      113      308      319      114      209      312      318      210      111      307      317      321
        1        1        1        1        0        0        0        0       20        0        2        1       81       80       73       29       50       60       59
      114      319      308      113      213      264      282      214      112      265      284      283
        1        1        1        1        0        0        0        0       20        0        3        1        8       74       73       28       21       76       75
      110      148      306      113      193      194      311      209      111      146      309      307
        1        1        1        1        0        0        0        0       20        0        4        1       73       74        8       29       59       58       36
      113      306      148      110      214      280      235      212      112      283      281      147
        1        1        1        1        0        0        0        0       20        0        5        8       95       78       74       21      102       77       76
      149      316      310      148      195      315      313      194      146      340      314      309
        1        1        1        1        0        0        0        0       20        0        6        8       74       78       95       36       58       57       43
      148      310      316      149      235      278      249      234      147      281      279      250
        1        1        1        1        0        0        0        0       20        0        7        1       81       82        2       28       88       89       27
      114      320      119      109      210      333      208      207      111      321      323      117
        1        1        1        1        0        0        0        0       20        0        8        1        2       82       81       29       30       51       50
      109      119      320      114      211      217      263      213      112      118      267      265
        1        1        1        1        0        0        0        0       20        0        9        1        2        9        8       28       27       20       21
      109      116      145      110      207      191      190      193      111      117      151      146
        1        1        1        1        0        0        0        0       20        0       10        1        8        9        2       29       36       37       30
      110      145      116      109      212      233      216      211      112      147      152      118
! ... 77 like lines cut
!Material Id = {56B9C4E2-9BB0-4F85-BAFB-C5FA777C1182}
/wb,elem,end               !  done creating elements
/com,*********** Send User Defined Coordinate System(s) ***********
csys,0
toffst,273.15,  ! Temperature offset from absolute zero
/com,*********** Set Reference Temperature ***********
tref,22.
/wb,mat,start              !  starting to send materials
/com,*********** Send Materials ***********
Temperature = 'TEMP' ! Temperature
MP,DENS,1,7850,	! kg m^-3
MP,ALPX,1,1.2e-05,	! C^-1
MP,C,1,434,	! J kg^-1 C^-1
MP,KXX,1,60.5,	! W m^-1 C^-1
MP,RSVX,1,1.7e-07,	! kg m^3 A^-2 s^-3
MP,EX,1,200000000000,	! Pa
MP,NUXY,1,0.3,
MP,MURX,1,10000,

/wb,mat,end                !  done sending materials
!************************* Model Summary ********************
!Solid,	Structural Steel,	matid,	1
!************************* End Model Summary ********************
! get the diagonal of the bounding box. Needed later for other things
*get,_xmin,node,,mnloc,x
*get,_ymin,node,,mnloc,y
*get,_zmin,node,,mnloc,z
*get,_xmax,node,,mxloc,x
*get,_ymax,node,,mxloc,y
*get,_zmax,node,,mxloc,z
_ASMDIAG=(_xmax-_xmin)*(_xmax-_xmin)+(_ymax-_ymin)*(_ymax-_ymin)+(_zmax-_zmin)*(_zmax-_zmin)
_ASMDIAG=SQRT(_ASMDIAG)
/wb,contact,start          !  starting to send contact
/wb,contact,end            !  done creating contacts
/golist
/wb,load,start             !  starting to send loads
/com,*********** Fixed Supports ***********
CMBLOCK,_FIXEDSU,NODE,       29
(8i10)
        61        62        63        64        65        66        67        68
        69        70        71        72       285       286       287       288
       289       290       291       292       293       294       295       296
       297       298       299       300       303
cmsel,s,_FIXEDSU
d,all,all
nsel,all
/com,*********** Define Force Using Surface Effect Elements ***********
local,12,0,0.,0.,0.,0.,0.,0.
csys,0
et,2,156
keyop,2,5,1         !  No orientation node
eblock,10,,,2
(15i9)
      141        2        2        2       12       80       79      317
      142        2        2        2       12       80       60      284
-1
esel,s,type,,2
keyop,2,2,1                ! Apply load in local coordinate system
keyop,2,7,1                ! Use original area so load is constant in large deformation
esel,all
/gst,on,on
fini
*get,_numnode,node,0,count
*get,_numelem,elem,0,count
*get, _MAXELEMNUM, elem, 0, NUM, MAX
*get, _MAXNODENUM, node, 0, NUM, MAX
*get, _MAXELEMTYPE, etyp, 0, NUM, MAX
*get, _MAXREALCONST, real, 0, NUM, MAX
/go
/wb,load,end               !  done creating loads
/com,--- Number of total nodes = %_numnode%
/com,--- Number of contact elements = 2
/com,--- Number of spring elements = 0
/com,--- Number of bearing elements = 0
/com,--- Number of solid elements = 48
/com,--- Number of condensed parts = 0
/com,--- Number of total elements = %_numelem%
*get,_wallbsol,active,,time,wall
/com,****************************************************************************
/com,*************************    SOLUTION       ********************************
/com,****************************************************************************
/solu
antype,0                   ! static analysis
_thickRatio=  0     ! Ratio of thick parts in the model
eqsl,sparse,,,,,1
cntr,print,1               ! print out contact info and also make no initial contact an error
dmpoption,emat,no             ! Don't combine emat file for DANSYS
dmpoption,esav,no             ! Don't combine esav file for DANSYS
nldiag,cont,iter           ! print out contact info each equilibrium iteration
rescontrol,,none                 ! Do not keep any restart files
/com,****************************************************
/com,******************* SOLVE FOR LS 1 OF 1 ****************
esel,s,type,,2
nsle
sfe,all,1,pres,1,0.
sfe,all,2,pres,1,0.
sfe,all,3,pres,1,-50000.
nsel,all
esel,all
/nopr
/gopr
nsub,1,1,1
time,1.
outres,erase
outres,all,none
outres,nsol,all,
outres,rsol,all
outres,eangl,all
outres,etmp,all
outres,veng,all
outres,strs,all,
outres,epel,all,
outres,eppl,all,
outres,cont,all,
! *********** WB SOLVE COMMAND ***********
! check interactive state
*get,ANSINTER_,active,,int
*if,ANSINTER_,ne,0,then
/eof
*endif
solve
/com *************** Write FE CONNECTORS ********* 
CEWRITE,file,ce,,INTE
/com,****************************************************
/com,*************** FINISHED SOLVE FOR LS 1 *************
*get,_wallasol,active,,time,wall
/nopr
*get,_numnode,node,0,count
*get,_numelem,elem,0,count
*get, _MAXELEMNUM, elem, 0, NUM, MAX
*get, _MAXNODENUM, node, 0, NUM, MAX,,,INTERNAL
*get, _MAXELEMTYPE, etyp, 0, NUM, MAX
*get, _MAXREALCONST, real, 0, NUM, MAX
/gopr
/post1
xmlo,ENCODING,ISO-8859-1
xmlo,parm
/xml,parm,xml
fini
/gopr
*get,_walldone,active,,time,wall
_preptime=(_wallbsol-_wallstrt)*3600
_solvtime=(_wallasol-_wallbsol)*3600
_posttime=(_walldone-_wallasol)*3600
_totaltim=(_walldone-_wallstrt)*3600
*get,_dlbratio,active,0,solu,dlbr
*get,_combtime,active,0,solu,comb
/com,--- Total number of nodes = %_numnode%
/com,--- Total number of elements = %_numelem%
/com,--- Element load balance ratio = %_dlbratio%
/com,--- Time to combine distributed files = %_combtime%
/wb,file,end               ! done with WB generated input
