/batch
/config,noeldb,1     ! force off writing results to database
*get,_wallstrt,active,,time,wall
! ANSYS input file written by Workbench version 2020 R2
! File used for geometry attach: C:\Users\robin\Documents\TMJoint_v2\tmjoint_static_bonded_files\dp0\SYS\DM\SYS.scdoc
/title,tmjoint_static_bonded--Static Structural (A5)
*DIM,_wb_ProjectScratch_dir,string,248
_wb_ProjectScratch_dir(1) = 'C:\Users\robin\Documents\TMJoint_v2\tmjoint_static_bonded_files\dp0\SYS\MECH\'
*DIM,_wb_SolverFiles_dir,string,248
_wb_SolverFiles_dir(1) = 'C:\Users\robin\Documents\TMJoint_v2\tmjoint_static_bonded_files\dp0\SYS\MECH\'
*DIM,_wb_userfiles_dir,string,248
_wb_userfiles_dir(1) = 'C:\Users\robin\Documents\TMJoint_v2\tmjoint_static_bonded_files\user_files\'
/com,--- Data in consistent MKS units. See Solving Units in the help system for more information.
/units,MKS
/nopr
/wb,file,start              !  signify a WB generated input file
/prep7
! Turn off shape checking because checks already performed inside WB mesher.
! See help system for more information.
SHPP,OFF,,NOWARN
/nolist
etcon,set             ! allow ANSYS to choose best KEYOP's for 180x elements
/com,*********** Nodes for the whole assembly ***********
nblock,3,,1078
(1i9,3e20.9e3)
        1     1.749999955E+00     5.000000075E-02     4.895833414E-02
        2     1.749999955E+00     1.000000015E-01     4.895833414E-02
        3     1.749999955E+00     1.500000022E-01     4.895833414E-02
        4     1.749999955E+00     5.000000075E-02     9.791666828E-02
        5     1.749999955E+00     1.000000015E-01     9.791666828E-02
        6     1.749999955E+00     1.500000022E-01     9.791666828E-02
        7     1.749999955E+00     5.000000075E-02     1.489583359E-01
        8     1.749999955E+00     1.000000015E-01     1.489583359E-01
        9     1.749999955E+00     1.500000022E-01     1.489583359E-01
       10     1.699999958E+00     5.000000075E-02     4.791666754E-02
       11     1.699999958E+00     1.000000015E-01     4.791666754E-02
       12     1.699999958E+00     1.500000022E-01     4.791666754E-02
       13     1.699999958E+00     5.000000075E-02     9.583333507E-02
       14     1.699999958E+00     1.000000015E-01     9.583333507E-02
       15     1.699999958E+00     1.500000022E-01     9.583333507E-02
       16     1.699999958E+00     5.000000075E-02     1.479166695E-01
       17     1.699999958E+00     1.000000015E-01     1.479166695E-01
       18     1.699999958E+00     1.500000022E-01     1.479166695E-01
       19     1.649999961E+00     5.000000075E-02     4.687500093E-02
       20     1.649999961E+00     1.000000015E-01     4.687500093E-02
! ... 961 like lines cut
/wb,elem,start            !  set before creation of elements
/com,*********** Elements for Body 1 "rightMeshTenonMortise_empty\Corps" ***********
et,1,185
eblock,19,solid,,268
(19i9)
        1        1        1        1        0        0        0        0        8        0        1        1      426      330      318      180      441      331      327
        1        1        1        1        0        0        0        0        8        0        2        1      318      330      426        2      317      329      411
        1        1        1        1        0        0        0        0        8        0        3        2      317      329      411        3      316      328      396
        1        1        1        1        0        0        0        0        8        0        4        3      316      328      396      181      257      256      226
        1        1        1        1        0        0        0        0        8        0        5        1       10      427      426      180      177      442      441
        1        1        1        1        0        0        0        0        8        0        6        1      426      427       10        2      411      412       11
        1        1        1        1        0        0        0        0        8        0        7        2      411      412       11        3      396      397       12
        1        1        1        1        0        0        0        0        8        0        8        3      396      397       12      181      226      227      184
        1        1        1        1        0        0        0        0        8        0        9       10       19      428      427      177      174      443      442
        1        1        1        1        0        0        0        0        8        0       10       10      427      428       19       11      412      413       20
        1        1        1        1        0        0        0        0        8        0       11       11      412      413       20       12      397      398       21
        1        1        1        1        0        0        0        0        8        0       12       12      397      398       21      184      227      228      187
        1        1        1        1        0        0        0        0        8        0       13       19       28      429      428      174      171      444      443
        1        1        1        1        0        0        0        0        8        0       14       19      428      429       28       20      413      414       29
        1        1        1        1        0        0        0        0        8        0       15       20      413      414       29       21      398      399       30
        1        1        1        1        0        0        0        0        8        0       16       21      398      399       30      187      228      229      190
        1        1        1        1        0        0        0        0        8        0       17       28       37      430      429      171      168      445      444
        1        1        1        1        0        0        0        0        8        0       18       28      429      430       37       29      414      415       38
        1        1        1        1        0        0        0        0        8        0       19       29      414      415       38       30      399      400       39
        1        1        1        1        0        0        0        0        8        0       20       30      399      400       39      190      229      230      193
! ... 249 like lines cut
!Material Id = {47F3BCF5-6562-4CF5-9CFD-F33903901BE1}
/com,*********** Elements for Body 2 "leftMeshTenonMortise_empty\Corps" ***********
et,2,185
eblock,19,solid,,308
(19i9)
        2        2        2        2        0        0        0        0        8        0      269      456      798      782      773      659      804      781      776
        2        2        2        2        0        0        0        0        8        0      270      456      773      782      798      457      774      783      800
        2        2        2        2        0        0        0        0        8        0      271      457      774      783      800      458      775      784      802
        2        2        2        2        0        0        0        0        8        0      272      458      775      784      802      660      761      762      754
        2        2        2        2        0        0        0        0        8        0      273      456      459      797      798      659      658      803      804
        2        2        2        2        0        0        0        0        8        0      274      456      798      797      459      457      800      799      460
        2        2        2        2        0        0        0        0        8        0      275      457      800      799      460      458      802      801      461
        2        2        2        2        0        0        0        0        8        0      276      458      802      801      461      660      754      755      661
        2        2        2        2        0        0        0        0        8        0      277      459      606      807      797      658      609      808      803
        2        2        2        2        0        0        0        0        8        0      278      459      797      807      606      460      799      806      607
        2        2        2        2        0        0        0        0        8        0      279      460      799      806      607      461      801      805      608
        2        2        2        2        0        0        0        0        8        0      280      461      801      805      608      661      755      756      710
        2        2        2        2        0        0        0        0        8        0      281      456      773      779      945      659      776      780      964
        2        2        2        2        0        0        0        0        8        0      282      456      945      779      773      457      926      778      774
        2        2        2        2        0        0        0        0        8        0      283      457      926      778      774      458      907      777      775
        2        2        2        2        0        0        0        0        8        0      284      458      907      777      775      660      714      760      761
        2        2        2        2        0        0        0        0        8        0      285      456      945      944      459      659      964      963      658
        2        2        2        2        0        0        0        0        8        0      286      456      459      944      945      457      460      925      926
        2        2        2        2        0        0        0        0        8        0      287      457      460      925      926      458      461      906      907
        2        2        2        2        0        0        0        0        8        0      288      458      461      906      907      660      661      715      714
! ... 289 like lines cut
!Material Id = {39F842A6-EC52-4CEC-8309-EC7A2BACB6EA}
/wb,elem,end               !  done creating elements
/com,*********** Send User Defined Coordinate System(s) ***********
csys,0
toffst,273.15,  ! Temperature offset from absolute zero
/com,*********** Set Reference Temperature ***********
tref,22.
/wb,mat,start              !  starting to send materials
/com,*********** Send Materials ***********
MP,EX,1,8000000000,	! Pa
MP,NUXY,1,0.4,

MP,EX,2,8000000000,	! Pa
MP,NUXY,2,0.4,

/wb,mat,end                !  done sending materials
!************************* Model Summary ********************
!rightMeshTenonMortise_empty\Corps,	Seb Material,	matid,	1
!leftMeshTenonMortise_empty\Corps,	Seb Material,	matid,	2
!************************* End Model Summary ********************
! get the diagonal of the bounding box. Needed later for other things
*get,_xmin,node,,mnloc,x
*get,_ymin,node,,mnloc,y
*get,_zmin,node,,mnloc,z
*get,_xmax,node,,mxloc,x
*get,_ymax,node,,mxloc,y
*get,_zmax,node,,mxloc,z
_ASMDIAG=(_xmax-_xmin)*(_xmax-_xmin)+(_ymax-_ymin)*(_ymax-_ymin)+(_zmax-_zmin)*(_zmax-_zmin)
_ASMDIAG=SQRT(_ASMDIAG)
/wb,contact,start          !  starting to send contact
/com,*********** Create Contact "Bonded - rightMeshTenonMortise_empty\Corps To leftMeshTenonMortise_empty\Corps" ***********
/com,            Real Constant Set For Above Contact Is 4 & 3 
*set,tid,4
*set,cid,3
r,tid
r,cid
et,tid,170
et,cid,174
eblock,10,,,40
(15i9)
     1265        4        4        4        0      282      286      287      283
     1266        4        4        4        0      281      285      286      282
     1267        4        4        4        0      280      284      285      281
     1268        4        4        4        0      269      268      284      280
     1269        4        4        4        0      286      300      306      287
     1270        4        4        4        0      285      302      300      286
     1271        4        4        4        0      284      304      302      285
     1272        4        4        4        0      268      264      304      284
     1273        4        4        4        0      300      301      307      306
     1274        4        4        4        0      302      303      301      300
     1275        4        4        4        0      304      305      303      302
     1276        4        4        4        0      264      263      305      304
     1277        4        4        4        0      301      278      279      307
     1278        4        4        4        0      303      277      278      301
     1279        4        4        4        0      305      276      277      303
     1280        4        4        4        0      263      270      276      305
     1281        4        4        4        0      278      274      275      279
     1282        4        4        4        0      277      273      274      278
     1283        4        4        4        0      276      272      273      277
     1284        4        4        4        0      270      271      272      276
! ... 21 like lines cut
eblock,10,,,40
(15i9)
     1305        3        3        3        0      282      286      287      283
     1306        3        3        3        0      281      285      286      282
     1307        3        3        3        0      280      284      285      281
     1308        3        3        3        0      269      268      284      280
     1309        3        3        3        0      286      300      306      287
     1310        3        3        3        0      285      302      300      286
     1311        3        3        3        0      284      304      302      285
     1312        3        3        3        0      268      264      304      284
     1313        3        3        3        0      300      301      307      306
     1314        3        3        3        0      302      303      301      300
     1315        3        3        3        0      304      305      303      302
     1316        3        3        3        0      264      263      305      304
     1317        3        3        3        0      301      278      279      307
     1318        3        3        3        0      303      277      278      301
     1319        3        3        3        0      305      276      277      303
     1320        3        3        3        0      263      270      276      305
     1321        3        3        3        0      278      274      275      279
     1322        3        3        3        0      277      273      274      278
     1323        3        3        3        0      276      272      273      277
     1324        3        3        3        0      270      271      272      276
! ... 21 like lines cut
eblock,10,,,40
(15i9)
     1345        3        4        3        0      776      773      779      780
     1346        3        4        3        0      781      782      773      776
     1347        3        4        3        0      773      774      778      779
     1348        3        4        3        0      782      783      774      773
     1349        3        4        3        0      774      775      777      778
     1350        3        4        3        0      783      784      775      774
     1351        3        4        3        0      775      761      760      777
     1352        3        4        3        0      784      762      761      775
     1353        3        4        3        0      765      766      771      772
     1354        3        4        3        0      766      767      770      771
     1355        3        4        3        0      767      768      769      770
     1356        3        4        3        0      768      764      763      769
     1357        3        4        3        0      793      785      758      759
     1358        3        4        3        0      794      787      785      793
     1359        3        4        3        0      795      789      787      794
     1360        3        4        3        0      796      791      789      795
     1361        3        4        3        0      785      786      757      758
     1362        3        4        3        0      787      788      786      785
     1363        3        4        3        0      789      790      788      787
     1364        3        4        3        0      791      792      790      789
! ... 21 like lines cut
eblock,10,,,40
(15i9)
     1385        4        3        4        0      776      773      779      780
     1386        4        3        4        0      781      782      773      776
     1387        4        3        4        0      773      774      778      779
     1388        4        3        4        0      782      783      774      773
     1389        4        3        4        0      774      775      777      778
     1390        4        3        4        0      783      784      775      774
     1391        4        3        4        0      775      761      760      777
     1392        4        3        4        0      784      762      761      775
     1393        4        3        4        0      765      766      771      772
     1394        4        3        4        0      766      767      770      771
     1395        4        3        4        0      767      768      769      770
     1396        4        3        4        0      768      764      763      769
     1397        4        3        4        0      793      785      758      759
     1398        4        3        4        0      794      787      785      793
     1399        4        3        4        0      795      789      787      794
     1400        4        3        4        0      796      791      789      795
     1401        4        3        4        0      785      786      757      758
     1402        4        3        4        0      787      788      786      785
     1403        4        3        4        0      789      790      788      787
     1404        4        3        4        0      791      792      790      789
! ... 21 like lines cut
keyo,cid,8,2               ! auto create asymmetric contact (from Program Controlled setting)
keyo,cid,10,0              ! adjust contact stiffness each NR iteration (from Program Controlled setting)
keyo,cid,12,5              ! bonded always
keyo,cid,18,1              ! small sliding turned on by application
keyo,cid,2,0               ! augmented Lagrange (from Program Controlled setting)
keyo,cid,4,0               ! on Gauss point (from Program Controlled setting)
keyo,cid,9,1               ! ignore initial gaps/penetration
keyo,cid,7,0               ! No Prediction
rmod,tid,3,10.      ! FKN
rmod,tid,5,0.       ! ICONT
rmod,tid,6,0.       ! PINB
rmod,tid,10,0.      ! CNOF
rmod,tid,12,0.      ! FKT
rmod,tid,36,59      ! WB DSID
rmod,cid,3,10.      ! FKN
rmod,cid,5,0.       ! ICONT
rmod,cid,6,0.       ! PINB
rmod,cid,10,0.      ! CNOF
rmod,cid,12,0.      ! FKT
rmod,cid,36,59      ! WB DSID
nsel,all
esel,all
/wb,contact,end            !  done creating contacts
/golist
/wb,load,start             !  starting to send loads
/com,*********** Fixed Supports ***********
CMBLOCK,_FIXEDSU,NODE,       25
(8i10)
       711       712       713       733       753       885       886       887
       888       965       966       967       968       969       970       971
       972       973       974       975       976       977       978       979
       980
cmsel,s,_FIXEDSU
d,all,all
nsel,all
/com,*********** Define Pressure Using Surface Effect Elements ***********
et,5,154
eblock,10,,,64
(15i9)
     1425        5        5        5        0      334      336      395      335
     1426        5        5        5        0      333      351      336      334
     1427        5        5        5        0      332      366      351      333
     1428        5        5        5        0      260      241      366      332
     1429        5        5        5        0      336      337      394      395
     1430        5        5        5        0      351      352      337      336
     1431        5        5        5        0      366      367      352      351
     1432        5        5        5        0      241      242      367      366
     1433        5        5        5        0      337      338      393      394
     1434        5        5        5        0      352      353      338      337
     1435        5        5        5        0      367      368      353      352
     1436        5        5        5        0      242      243      368      367
     1437        5        5        5        0      338      339      392      393
     1438        5        5        5        0      353      354      339      338
     1439        5        5        5        0      368      369      354      353
     1440        5        5        5        0      243      244      369      368
     1441        5        5        5        0      339      340      391      392
     1442        5        5        5        0      354      355      340      339
     1443        5        5        5        0      369      370      355      354
     1444        5        5        5        0      244      245      370      369
! ... 45 like lines cut
esel,s,type,,5
keyop,5,7,0                ! Use deformed area for application of load
esel,all
esel,all
/gst,on,on
fini
*get,_numnode,node,0,count
*get,_numelem,elem,0,count
*get, _MAXELEMNUM, elem, 0, NUM, MAX
*get, _MAXNODENUM, node, 0, NUM, MAX
*get, _MAXELEMTYPE, etyp, 0, NUM, MAX
*get, _MAXREALCONST, real, 0, NUM, MAX
/go
/wb,load,end               !  done creating loads
/com,--- Number of total nodes = %_numnode%
/com,--- Number of contact elements = 224
/com,--- Number of spring elements = 0
/com,--- Number of bearing elements = 0
/com,--- Number of solid elements = 576
/com,--- Number of condensed parts = 0
/com,--- Number of total elements = %_numelem%
*get,_wallbsol,active,,time,wall
/com,****************************************************************************
/com,*************************    SOLUTION       ********************************
/com,****************************************************************************
/solu
antype,0                   ! static analysis
_thickRatio=  1     ! Ratio of thick parts in the model
eqsl,pcg,1e-8,,,,,,1
cntr,print,1               ! print out contact info and also make no initial contact an error
dmpoption,emat,no             ! Don't combine emat file for DANSYS
dmpoption,esav,no             ! Don't combine esav file for DANSYS
nldiag,cont,iter           ! print out contact info each equilibrium iteration
rescontrol,,none                 ! Do not keep any restart files
/com,****************************************************
/com,******************* SOLVE FOR LS 1 OF 1 ****************
esel,s,type,,5
nsle
sf,all,pres,3000.
nsel,all
esel,all
esel,all
/nopr
/gopr
nsub,1,1,1
time,1.
outres,erase
outres,all,none
outres,nsol,all,
outres,rsol,all
outres,eangl,all
outres,etmp,all
outres,veng,all
outres,strs,all,
outres,epel,all,
outres,eppl,all,
outres,cont,all,
! *********** WB SOLVE COMMAND ***********
! check interactive state
*get,ANSINTER_,active,,int
*if,ANSINTER_,ne,0,then
/eof
*endif
solve
/com *************** Write FE CONNECTORS ********* 
CEWRITE,file,ce,,INTE
/com,****************************************************
/com,*************** FINISHED SOLVE FOR LS 1 *************
*get,_wallasol,active,,time,wall
/nopr
*get,_numnode,node,0,count
*get,_numelem,elem,0,count
*get, _MAXELEMNUM, elem, 0, NUM, MAX
*get, _MAXNODENUM, node, 0, NUM, MAX,,,INTERNAL
*get, _MAXELEMTYPE, etyp, 0, NUM, MAX
*get, _MAXREALCONST, real, 0, NUM, MAX
/gopr
*get,_PCGITER,active,,solu,cgiter
/post1
xmlo,ENCODING,ISO-8859-1
xmlo,parm
/xml,parm,xml
fini
/gopr
*get,_walldone,active,,time,wall
_preptime=(_wallbsol-_wallstrt)*3600
_solvtime=(_wallasol-_wallbsol)*3600
_posttime=(_walldone-_wallasol)*3600
_totaltim=(_walldone-_wallstrt)*3600
*get,_dlbratio,active,0,solu,dlbr
*get,_combtime,active,0,solu,comb
/com,--- Total number of nodes = %_numnode%
/com,--- Total number of elements = %_numelem%
/com,--- Element load balance ratio = %_dlbratio%
/com,--- Time to combine distributed files = %_combtime%
/wb,file,end               ! done with WB generated input
