/batch
/config,noeldb,1     ! force off writing results to database
*get,_wallstrt,active,,time,wall
! ANSYS input file written by Workbench version 2020 R2
! File used for geometry attach: C:\Users\robin\Documents\TMJoint_v2\tmjoint_static_contact1_files\dp0\SYS\DM\SYS.scdoc
/title,tmjoint_static_contact1--Static Structural (A5)
*DIM,_wb_ProjectScratch_dir,string,248
_wb_ProjectScratch_dir(1) = 'C:\Users\robin\Documents\TMJoint_v2\tmjoint_static_contact1_files\dp0\SYS\MECH\'
*DIM,_wb_SolverFiles_dir,string,248
_wb_SolverFiles_dir(1) = 'C:\Users\robin\Documents\TMJoint_v2\tmjoint_static_contact1_files\dp0\SYS\MECH\'
*DIM,_wb_userfiles_dir,string,248
_wb_userfiles_dir(1) = 'C:\Users\robin\Documents\TMJoint_v2\tmjoint_static_contact1_files\user_files\'
/com,--- Data in consistent MKS units. See Solving Units in the help system for more information.
/units,MKS
/nopr
/wb,file,start              !  signify a WB generated input file
/prep7
! Turn off shape checking because checks already performed inside WB mesher.
! See help system for more information.
SHPP,OFF,,NOWARN
/nolist
etcon,set             ! allow ANSYS to choose best KEYOP's for 180x elements
/com,*********** Nodes for the whole assembly ***********
nblock,3,,2713
(1i9,3e20.9e3)
        1     6.666666728E-02     1.333333353E-01     6.666666785E-02
        2     6.666666728E-02     6.666666766E-02     6.666666785E-02
        3     6.666666728E-02     1.333333353E-01     1.333333357E-01
        4     6.666666728E-02     6.666666766E-02     1.333333357E-01
        5     1.333333346E-01     1.333333353E-01     6.666666804E-02
        6     1.333333346E-01     6.666666766E-02     6.666666804E-02
        7     1.333333346E-01     1.333333353E-01     1.333333361E-01
        8     1.333333346E-01     6.666666766E-02     1.333333361E-01
        9     2.000000018E-01     1.333333353E-01     6.666666823E-02
       10     2.000000018E-01     6.666666766E-02     6.666666823E-02
       11     2.000000018E-01     1.333333353E-01     1.333333365E-01
       12     2.000000018E-01     6.666666766E-02     1.333333365E-01
       13     2.666666691E-01     1.333333353E-01     6.666666842E-02
       14     2.666666691E-01     6.666666766E-02     6.666666842E-02
       15     2.666666691E-01     1.333333353E-01     1.333333368E-01
       16     2.666666691E-01     6.666666766E-02     1.333333368E-01
       17     3.333333364E-01     1.333333353E-01     6.666666862E-02
       18     3.333333364E-01     6.666666766E-02     6.666666862E-02
       19     3.333333364E-01     1.333333353E-01     1.333333372E-01
       20     3.333333364E-01     6.666666766E-02     1.333333372E-01
! ... 2448 like lines cut
/wb,elem,start            !  set before creation of elements
/com,*********** Elements for Body 1 "rightMeshTenonMortise_empty\Corps" ***********
et,1,186
keyo,1,2,1          ! set full integration on SOLID186
eblock,19,solid,,272
(19i9)
        1        1        1        1        0        0        0        0       20        0      130      873     1299     1221     1205     1064     1311     1222     1218
     1328     2299     2270     1327     1962     2300     2293     1961     1326     2435     2298     2269
        1        1        1        1        0        0        0        0       20        0      131      873     1205     1221     1299      874     1204     1220     1287
     1327     2270     2299     1328     1332     2267     2297     1333     1323     2265     2296     2412
        1        1        1        1        0        0        0        0       20        0      132      874     1204     1220     1287      875     1203     1219     1275
     1332     2267     2297     1333     1337     2264     2295     1338     1329     2262     2294     2389
        1        1        1        1        0        0        0        0       20        0      133      875     1203     1219     1275     1065     1138     1137     1113
     1337     2264     2295     1338     1966     2125     2076     1965     1336     2128     2126     2077
        1        1        1        1        0        0        0        0       20        0      134      873      885     1300     1299     1064     1060     1312     1311
     1325     1382     2434     1328     1952     1953     2457     1962     1326     1381     2437     2435
        1        1        1        1        0        0        0        0       20        0      135      873     1299     1300      885      874     1287     1288      886
     1328     2434     1382     1325     1333     2411     1386     1331     1323     2412     2414     1378
        1        1        1        1        0        0        0        0       20        0      136      874     1287     1288      886      875     1275     1276      887
     1333     2411     1386     1331     1338     2388     1390     1335     1329     2389     2391     1383
        1        1        1        1        0        0        0        0       20        0      137      875     1275     1276      887     1065     1113     1114     1069
     1338     2388     1390     1335     1965     2075     1978     1964     1336     2077     2079     1389
        1        1        1        1        0        0        0        0       20        0      138      885      897     1301     1300     1060     1056     1313     1312
     1380     1425     2436     1382     1943     1944     2458     1953     1381     1424     2439     2437
        1        1        1        1        0        0        0        0       20        0      139      885     1300     1301      897      886     1288     1289      898
     1382     2436     1425     1380     1386     2413     1429     1385     1378     2414     2416     1421
! ... 525 like lines cut
!Material Id = {47F3BCF5-6562-4CF5-9CFD-F33903901BE1}
/com,*********** Elements for Body 2 "leftMeshTenonMortise_empty\Corps" ***********
et,2,186
keyo,2,2,1          ! set full integration on SOLID186
eblock,19,solid,,129
(19i9)
        2        2        2        2        0        0        0        0       20        0        1      144      233      155      147      145      247      157      146
      679      706      685      678      681      710      683      680      677      846      704      682
        2        2        2        2        0        0        0        0       20        0        2      143      219      156      148      144      233      155      147
      676      708      686      675      679      706      685      678      674      818      703      684
        2        2        2        2        0        0        0        0       20        0        3       99      129      134      133      219      156      148      143
      583      647      655      584      708      686      675      676      585      648      657      656
        2        2        2        2        0        0        0        0       20        0        4      155      233      232      159      157      247      246      160
      706      844      714      705      710      860      715      709      704      846      845      713
        2        2        2        2        0        0        0        0       20        0        5      155      159      232      233      156      158      218      219
      705      714      844      706      707      712      816      708      703      711      817      818
        2        2        2        2        0        0        0        0       20        0        6       99      100      130      129      219      218      158      156
      582      587      646      583      816      712      707      708      585      588      650      648
        2        2        2        2        0        0        0        0       20        0        7        1      220      249      252       72      234      248      256
      261      821      864      262      513      848      862      514      260      820      861      869
        2        2        2        2        0        0        0        0       20        0        8        1      252      249      220        2      251      250      206
      262      864      821      261      267      865      793      266      257      866      863      792
        2        2        2        2        0        0        0        0       20        0        9        2      251      250      206       73       98      113      112
      267      865      793      266      517      580      611      518      265      581      613      612
        2        2        2        2        0        0        0        0       20        0       10        1        5      221      220       72       70      235      234
      259      281      819      261      508      509      847      513      260      280      823      820
! ... 239 like lines cut
!Material Id = {39F842A6-EC52-4CEC-8309-EC7A2BACB6EA}
/wb,elem,end               !  done creating elements
/com,*********** Send User Defined Coordinate System(s) ***********
csys,0
toffst,273.15,  ! Temperature offset from absolute zero
/com,*********** Set Reference Temperature ***********
tref,22.
/wb,mat,start              !  starting to send materials
/com,*********** Send Materials ***********
MP,EX,1,8000000000,	! Pa
MP,NUXY,1,0.4,

MP,EX,2,8000000000,	! Pa
MP,NUXY,2,0.4,

/wb,mat,end                !  done sending materials
!************************* Model Summary ********************
!rightMeshTenonMortise_empty\Corps,	Seb Material,	matid,	1
!leftMeshTenonMortise_empty\Corps,	Seb Material,	matid,	2
!************************* End Model Summary ********************
! get the diagonal of the bounding box. Needed later for other things
*get,_xmin,node,,mnloc,x
*get,_ymin,node,,mnloc,y
*get,_zmin,node,,mnloc,z
*get,_xmax,node,,mxloc,x
*get,_ymax,node,,mxloc,y
*get,_zmax,node,,mxloc,z
_ASMDIAG=(_xmax-_xmin)*(_xmax-_xmin)+(_ymax-_ymin)*(_ymax-_ymin)+(_zmax-_zmin)*(_zmax-_zmin)
_ASMDIAG=SQRT(_ASMDIAG)
/wb,contact,start          !  starting to send contact
/com,*********** Create Contact "Frictional - rightMeshTenonMortise_empty\Corps To leftMeshTenonMortise_empty\Corps" ***********
/com,            Real Constant Set For Above Contact Is 4 & 3 
*set,tid,4
*set,cid,3
r,tid
r,cid
et,tid,170
et,cid,174
eblock,10,,,44
(15i9)
      912        4        4        4        0     1169     1163     1166     1170     2182     2181     2189     2195
      913        4        4        4        0     1168     1164     1163     1169     2185     2180     2182     2193
      914        4        4        4        0     1167     1165     1164     1168     2187     2184     2185     2191
      915        4        4        4        0     1152     1151     1165     1167     2156     2157     2187     2158
      916        4        4        4        0     1163     1173     1174     1166     2183     2204     2190     2181
      917        4        4        4        0     1164     1172     1173     1163     2186     2201     2183     2180
      918        4        4        4        0     1165     1171     1172     1164     2188     2198     2186     2184
      919        4        4        4        0     1151     1150     1171     1165     2154     2155     2188     2157
      920        4        4        4        0     1173     1187     1193     1174     2206     2236     2208     2204
      921        4        4        4        0     1172     1189     1187     1173     2203     2235     2206     2201
      922        4        4        4        0     1171     1191     1189     1172     2200     2242     2203     2198
      923        4        4        4        0     1150     1146     1191     1171     2146     2147     2200     2155
      924        4        4        4        0     1187     1188     1194     1193     2234     2239     2249     2236
      925        4        4        4        0     1189     1190     1188     1187     2241     2238     2234     2235
      926        4        4        4        0     1191     1192     1190     1189     2246     2244     2241     2242
      927        4        4        4        0     1146     1145     1192     1191     2143     2145     2246     2147
      928        4        4        4        0     1188     1161     1162     1194     2178     2177     2179     2239
      929        4        4        4        0     1190     1160     1161     1188     2176     2175     2178     2238
      930        4        4        4        0     1192     1159     1160     1190     2174     2173     2176     2244
      931        4        4        4        0     1145     1153     1159     1192     2144     2160     2174     2145
! ... 25 like lines cut
eblock,10,,,44
(15i9)
      956        3        3        3        0     1169     1163     1166     1170     2182     2181     2189     2195
      957        3        3        3        0     1168     1164     1163     1169     2185     2180     2182     2193
      958        3        3        3        0     1167     1165     1164     1168     2187     2184     2185     2191
      959        3        3        3        0     1152     1151     1165     1167     2156     2157     2187     2158
      960        3        3        3        0     1163     1173     1174     1166     2183     2204     2190     2181
      961        3        3        3        0     1164     1172     1173     1163     2186     2201     2183     2180
      962        3        3        3        0     1165     1171     1172     1164     2188     2198     2186     2184
      963        3        3        3        0     1151     1150     1171     1165     2154     2155     2188     2157
      964        3        3        3        0     1173     1187     1193     1174     2206     2236     2208     2204
      965        3        3        3        0     1172     1189     1187     1173     2203     2235     2206     2201
      966        3        3        3        0     1171     1191     1189     1172     2200     2242     2203     2198
      967        3        3        3        0     1150     1146     1191     1171     2146     2147     2200     2155
      968        3        3        3        0     1187     1188     1194     1193     2234     2239     2249     2236
      969        3        3        3        0     1189     1190     1188     1187     2241     2238     2234     2235
      970        3        3        3        0     1191     1192     1190     1189     2246     2244     2241     2242
      971        3        3        3        0     1146     1145     1192     1191     2143     2145     2246     2147
      972        3        3        3        0     1188     1161     1162     1194     2178     2177     2179     2239
      973        3        3        3        0     1190     1160     1161     1188     2176     2175     2178     2238
      974        3        3        3        0     1192     1159     1160     1190     2174     2173     2176     2244
      975        3        3        3        0     1145     1153     1159     1192     2144     2160     2174     2145
! ... 25 like lines cut
eblock,10,,,21
(15i9)
     1000        3        4        3        0      146      147      144      145      682      678      677      680
     1001        3        4        3        0      147      148      143      144      684      675      674      678
     1002        3        4        3        0      148      134      133      143      657      655      656      675
     1003        3        4        3        0      137      138      141      142      661      665      671      662
     1004        3        4        3        0      138      139      140      141      664      667      669      665
     1005        3        4        3        0      139      136      135      140      660      658      659      667
     1006        3        4        3        0      152      149      131      132      688      653      651      654
     1007        3        4        3        0      153      150      149      152      691      687      688      695
     1008        3        4        3        0      154      151      150      153      693      690      691      698
     1009        3        4        3        0      149      140      135      131      670      659      652      653
     1010        3        4        3        0      150      141      140      149      672      669      670      687
     1011        3        4        3        0      151      142      141      150      673      671      672      690
     1012        3        4        3        0      158      152      132      130      696      654      649      650
     1013        3        4        3        0      159      153      152      158      699      695      696      711
     1014        3        4        3        0      160      154      153      159      701      698      699      713
     1015        3        4        3        0      159      155      157      160      705      704      709      713
     1016        3        4        3        0      158      156      155      159      707      703      705      711
     1017        3        4        3        0      130      129      156      158      646      648      707      650
     1018        3        4        3        0      155      147      146      157      685      682      683      704
     1019        3        4        3        0      156      148      147      155      686      684      685      703
     1020        3        4        3        0      129      134      148      156      647      657      686      648
-1
eblock,10,,,21
(15i9)
     1021        4        3        4        0      146      147      144      145      682      678      677      680
     1022        4        3        4        0      147      148      143      144      684      675      674      678
     1023        4        3        4        0      148      134      133      143      657      655      656      675
     1024        4        3        4        0      137      138      141      142      661      665      671      662
     1025        4        3        4        0      138      139      140      141      664      667      669      665
     1026        4        3        4        0      139      136      135      140      660      658      659      667
     1027        4        3        4        0      152      149      131      132      688      653      651      654
     1028        4        3        4        0      153      150      149      152      691      687      688      695
     1029        4        3        4        0      154      151      150      153      693      690      691      698
     1030        4        3        4        0      149      140      135      131      670      659      652      653
     1031        4        3        4        0      150      141      140      149      672      669      670      687
     1032        4        3        4        0      151      142      141      150      673      671      672      690
     1033        4        3        4        0      158      152      132      130      696      654      649      650
     1034        4        3        4        0      159      153      152      158      699      695      696      711
     1035        4        3        4        0      160      154      153      159      701      698      699      713
     1036        4        3        4        0      159      155      157      160      705      704      709      713
     1037        4        3        4        0      158      156      155      159      707      703      705      711
     1038        4        3        4        0      130      129      156      158      646      648      707      650
     1039        4        3        4        0      155      147      146      157      685      682      683      704
     1040        4        3        4        0      156      148      147      155      686      684      685      703
     1041        4        3        4        0      129      134      148      156      647      657      686      648
-1
keyo,cid,8,2               ! auto create asymmetric contact (from Program Controlled setting)
keyo,cid,10,0              ! adjust contact stiffness each NR iteration (from Program Controlled setting)
keyo,cid,12,0              ! standard contact
mp,mu,cid,1.e-008   ! unitless
keyo,cid,18,1              ! small sliding turned on by application
keyo,cid,2,0               ! augmented Lagrange (from Program Controlled setting)
keyo,cid,4,0               ! on Gauss point (from Program Controlled setting)
keyo,cid,9,0               ! use real geometry with stepped effects
keyo,cid,7,0               ! No Prediction
rmod,tid,3,1.       ! FKN
rmod,tid,5,0.       ! ICONT
rmod,tid,6,0.       ! PINB
rmod,tid,10,0.      ! CNOF
rmod,tid,12,0.      ! FKT
rmod,tid,36,59      ! WB DSID
rmod,cid,3,1.       ! FKN
rmod,cid,5,0.       ! ICONT
rmod,cid,6,0.       ! PINB
rmod,cid,10,0.      ! CNOF
rmod,cid,12,0.      ! FKT
rmod,cid,36,59      ! WB DSID
nsel,all
esel,all
/wb,contact,end            !  done creating contacts
/golist
/wb,load,start             !  starting to send loads
/com,*********** Fixed Supports ***********
CMBLOCK,_FIXEDSU,NODE,       40
(8i10)
        97        98       113       128       203       204       205       248
       249       250       251       252       253       254       255       256
       577       578       579       580       581       613       645       786
       787       788       789       790       861       862       863       864
       865       866       867       868       869       870       871       872

cmsel,s,_FIXEDSU
d,all,all
nsel,all
/com,*********** Define Pressure Using Surface Effect Elements ***********
et,5,154
eblock,10,,,52
(15i9)
     1042        5        5        5        0     1225     1227     1274     1226     2306     2310     2307     2305
     1043        5        5        5        0     1224     1239     1227     1225     2304     2309     2306     2303
     1044        5        5        5        0     1223     1251     1239     1224     2302     2344     2304     2301
     1045        5        5        5        0     1142     1125     1251     1223     2101     2102     2302     2135
     1046        5        5        5        0     1227     1228     1273     1274     2308     2313     2387     2310
     1047        5        5        5        0     1239     1240     1228     1227     2343     2312     2308     2309
     1048        5        5        5        0     1251     1252     1240     1239     2366     2346     2343     2344
     1049        5        5        5        0     1125     1126     1252     1251     2100     2104     2366     2102
     1050        5        5        5        0     1228     1229     1272     1273     2311     2316     2386     2313
     1051        5        5        5        0     1240     1241     1229     1228     2345     2315     2311     2312
     1052        5        5        5        0     1252     1253     1241     1240     2367     2348     2345     2346
     1053        5        5        5        0     1126     1127     1253     1252     2103     2106     2367     2104
     1054        5        5        5        0     1229     1230     1271     1272     2314     2319     2385     2316
     1055        5        5        5        0     1241     1242     1230     1229     2347     2318     2314     2315
     1056        5        5        5        0     1253     1254     1242     1241     2368     2350     2347     2348
     1057        5        5        5        0     1127     1128     1254     1253     2105     2108     2368     2106
     1058        5        5        5        0     1230     1231     1270     1271     2317     2322     2384     2319
     1059        5        5        5        0     1242     1243     1231     1230     2349     2321     2317     2318
     1060        5        5        5        0     1254     1255     1243     1242     2369     2352     2349     2350
     1061        5        5        5        0     1128     1129     1255     1254     2107     2110     2369     2108
! ... 33 like lines cut
esel,s,type,,5
keyop,5,7,0                ! Use deformed area for application of load
esel,all
esel,all
/gst,on,on
fini
*get,_numnode,node,0,count
*get,_numelem,elem,0,count
*get, _MAXELEMNUM, elem, 0, NUM, MAX
*get, _MAXNODENUM, node, 0, NUM, MAX
*get, _MAXELEMTYPE, etyp, 0, NUM, MAX
*get, _MAXREALCONST, real, 0, NUM, MAX
/go
/wb,load,end               !  done creating loads
/com,--- Number of total nodes = %_numnode%
/com,--- Number of contact elements = 182
/com,--- Number of spring elements = 0
/com,--- Number of bearing elements = 0
/com,--- Number of solid elements = 401
/com,--- Number of condensed parts = 0
/com,--- Number of total elements = %_numelem%
*get,_wallbsol,active,,time,wall
/com,****************************************************************************
/com,*************************    SOLUTION       ********************************
/com,****************************************************************************
/solu
antype,0                   ! static analysis
_thickRatio=  1     ! Ratio of thick parts in the model
eqsl,pcg,1e-8,,,,,,1
cntr,print,1               ! print out contact info and also make no initial contact an error
dmpoption,emat,no             ! Don't combine emat file for DANSYS
dmpoption,esav,no             ! Don't combine esav file for DANSYS
nldiag,cont,iter           ! print out contact info each equilibrium iteration
rescontrol,define,last,last,,dele	   ! Program Controlled
/com,****************************************************
/com,******************* SOLVE FOR LS 1 OF 1 ****************
esel,s,type,,5
nsle
sf,all,pres,300000.
nsel,all
esel,all
esel,all
/nopr
/gopr
autots,on                  ! Workbench Program Controlled automatic time stepping
nsub,1,10,1                ! due to presence of general nonlinear
time,1.
outres,erase
outres,all,none
outres,nsol,all,
outres,rsol,all
outres,eangl,all
outres,etmp,all
outres,veng,all
outres,strs,all,
outres,epel,all,
outres,eppl,all,
outres,cont,all,
! *********** WB SOLVE COMMAND ***********
! check interactive state
*get,ANSINTER_,active,,int
*if,ANSINTER_,ne,0,then
/eof
*endif
solve
/com *************** Write FE CONNECTORS ********* 
CEWRITE,file,ce,,INTE
/com,****************************************************
/com,*************** FINISHED SOLVE FOR LS 1 *************
*get,_wallasol,active,,time,wall
/nopr
*get,_numnode,node,0,count
*get,_numelem,elem,0,count
*get, _MAXELEMNUM, elem, 0, NUM, MAX
*get, _MAXNODENUM, node, 0, NUM, MAX,,,INTERNAL
*get, _MAXELEMTYPE, etyp, 0, NUM, MAX
*get, _MAXREALCONST, real, 0, NUM, MAX
/gopr
*get,_PCGITER,active,,solu,cgiter
/post1
xmlo,ENCODING,ISO-8859-1
xmlo,parm
/xml,parm,xml
fini
/gopr
*get,_walldone,active,,time,wall
_preptime=(_wallbsol-_wallstrt)*3600
_solvtime=(_wallasol-_wallbsol)*3600
_posttime=(_walldone-_wallasol)*3600
_totaltim=(_walldone-_wallstrt)*3600
*get,_dlbratio,active,0,solu,dlbr
*get,_combtime,active,0,solu,comb
/com,--- Total number of nodes = %_numnode%
/com,--- Total number of elements = %_numelem%
/com,--- Element load balance ratio = %_dlbratio%
/com,--- Time to combine distributed files = %_combtime%
/wb,file,end               ! done with WB generated input
