
 ANSYS Academic Research                           


 *------------------------------------------------------------------*
 |                                                                  |
 |   W E L C O M E   T O   T H E   A N S Y S (R)  P R O G R A M     |
 |                                                                  |
 *------------------------------------------------------------------*




 ***************************************************************
 *            ANSYS 2020 R2          LEGAL NOTICES             *
 ***************************************************************
 *                                                             *
 * Copyright 1971-2020 ANSYS, Inc.  All rights reserved.       *
 * Unauthorized use, distribution or duplication is            *
 * prohibited.                                                 *
 *                                                             *
 * Ansys is a registered trademark of ANSYS, Inc. or its       *
 * subsidiaries in the United States or other countries.       *
 * See the ANSYS, Inc. online documentation or the ANSYS, Inc. *
 * documentation CD or online help for the complete Legal      *
 * Notice.                                                     *
 *                                                             *
 ***************************************************************
 *                                                             *
 * THIS ANSYS SOFTWARE PRODUCT AND PROGRAM DOCUMENTATION       *
 * INCLUDE TRADE SECRETS AND CONFIDENTIAL AND PROPRIETARY      *
 * PRODUCTS OF ANSYS, INC., ITS SUBSIDIARIES, OR LICENSORS.    *
 * The software products and documentation are furnished by    *
 * ANSYS, Inc. or its subsidiaries under a software license    *
 * agreement that contains provisions concerning               *
 * non-disclosure, copying, length and nature of use,          *
 * compliance with exporting laws, warranties, disclaimers,    *
 * limitations of liability, and remedies, and other           *
 * provisions.  The software products and documentation may be *
 * used, disclosed, transferred, or copied only in accordance  *
 * with the terms and conditions of that software license      *
 * agreement.                                                  *
 *                                                             *
 * ANSYS, Inc. is a UL registered                              *
 * ISO 9001:2015 company.                                      *
 *                                                             *
 ***************************************************************
 *                                                             *
 * This product is subject to U.S. laws governing export and   *
 * re-export.                                                  *
 *                                                             *
 * For U.S. Government users, except as specifically granted   *
 * by the ANSYS, Inc. software license agreement, the use,     *
 * duplication, or disclosure by the United States Government  *
 * is subject to restrictions stated in the ANSYS, Inc.        *
 * software license agreement and FAR 12.212 (for non-DOD      *
 * licenses).                                                  *
 *                                                             *
 ***************************************************************

 2020 R2 
     
 Point Releases and Patches installed:   
     
 ANSYS, Inc. Products 2020 R2
 SpaceClaim 2020 R2  
 Customization Files for User Programmable Features 2020 R2  
 Mechanical Products 2020 R2 
 Additive 2020 R2
 Remote Solve Manager Standalone Services 2020 R2
 Viewer 2020 R2  
 ANSYS, Inc. License Manager 2020 R2 


          *****  ANSYS COMMAND LINE ARGUMENTS  *****
  BATCH MODE REQUESTED (-b)    = NOLIST
  INPUT FILE COPY MODE (-c)    = COPY
  DISTRIBUTED MEMORY PARALLEL REQUESTED
      16 PARALLEL PROCESSES REQUESTED WITH SINGLE THREAD PER PROCESS
    TOTAL OF    16 CORES REQUESTED
  DESIGNXPLORER REQUESTED
  INPUT FILE NAME              = C:\Users\robin\Documents\_ProjectScratch\ScrF64A\dummy.dat
  OUTPUT FILE NAME             = C:\Users\robin\Documents\_ProjectScratch\ScrF64A\solve.out
  START-UP FILE MODE           = NOREAD
  STOP FILE MODE               = NOREAD

 RELEASE= 2020 R2              BUILD= 20.2      UP20200601   VERSION=WINDOWS x64 
 CURRENT JOBNAME=file0  10:31:43  JAN 14, 2021 CP=      0.359


 PARAMETER _DS_PROGRESS =     999.0000000    

 /INPUT FILE= ds.dat  LINE=       0



 *** NOTE ***                            CP =       1.047   TIME= 10:31:43
 The /CONFIG,NOELDB command is not valid in a Distributed ANSYS          
 solution.  Command is ignored.                                          

 *GET  _WALLSTRT  FROM  ACTI  ITEM=TIME WALL  VALUE=  10.5286111    

 TITLE= 
 cantilever_simple--Static Structural (A5)                                     


 SET PARAMETER DIMENSIONS ON  _WB_PROJECTSCRATCH_DIR
  TYPE=STRI  DIMENSIONS=      248        1        1

 PARAMETER _WB_PROJECTSCRATCH_DIR(1) = C:\Users\robin\Documents\_ProjectScratch\ScrF64A\

 SET PARAMETER DIMENSIONS ON  _WB_SOLVERFILES_DIR
  TYPE=STRI  DIMENSIONS=      248        1        1

 PARAMETER _WB_SOLVERFILES_DIR(1) = C:\Users\robin\Documents\cantilever_simple_files\dp0\SYS\MECH\

 SET PARAMETER DIMENSIONS ON  _WB_USERFILES_DIR
  TYPE=STRI  DIMENSIONS=      248        1        1

 PARAMETER _WB_USERFILES_DIR(1) = C:\Users\robin\Documents\cantilever_simple_files\user_files\
 --- Data in consistent MKS units. See Solving Units in the help system for more

 MKS UNITS SPECIFIED FOR INTERNAL    
  LENGTH        (l)  = METER (M)
  MASS          (M)  = KILOGRAM (KG)
  TIME          (t)  = SECOND (SEC)
  TEMPERATURE   (T)  = CELSIUS (C)
  TOFFSET            = 273.0
  CHARGE        (Q)  = COULOMB
  FORCE         (f)  = NEWTON (N) (KG-M/SEC2)
  HEAT               = JOULE (N-M)

  PRESSURE           = PASCAL (NEWTON/M**2)
  ENERGY        (W)  = JOULE (N-M)
  POWER         (P)  = WATT (N-M/SEC)
  CURRENT       (i)  = AMPERE (COULOMBS/SEC)
  CAPACITANCE   (C)  = FARAD
  INDUCTANCE    (L)  = HENRY
  MAGNETIC FLUX      = WEBER
  RESISTANCE    (R)  = OHM
  ELECTRIC POTENTIAL = VOLT

 INPUT  UNITS ARE ALSO SET TO MKS 

 *** ANSYS - ENGINEERING ANALYSIS SYSTEM  RELEASE 2020 R2          20.2     ***
 DISTRIBUTED ANSYS Academic Research                           

 00207209  VERSION=WINDOWS x64   10:31:43  JAN 14, 2021 CP=      1.125

 cantilever_simple--Static Structural (A5)                                     



          ***** ANSYS ANALYSIS DEFINITION (PREP7) *****
 *********** Nodes for the whole assembly ***********
 *********** Elements for Body 1 "Solid" ***********
 *********** Send User Defined Coordinate System(s) ***********
 *********** Set Reference Temperature ***********
 *********** Send Materials ***********
 *********** Fixed Supports ***********
 *********** Define Force Using Surface Effect Elements ***********


 ***** ROUTINE COMPLETED *****  CP =         3.141


 --- Number of total nodes = 357
 --- Number of contact elements = 16
 --- Number of spring elements = 0
 --- Number of bearing elements = 0
 --- Number of solid elements = 48
 --- Number of condensed parts = 0
 --- Number of total elements = 64

 *GET  _WALLBSOL  FROM  ACTI  ITEM=TIME WALL  VALUE=  10.5288889    
 ****************************************************************************
 *************************    SOLUTION       ********************************
 ****************************************************************************

 *****  ANSYS SOLUTION ROUTINE  *****


 PERFORM A STATIC ANALYSIS
  THIS WILL BE A NEW ANALYSIS

 PARAMETER _THICKRATIO =     0.000000000    

 USE SPARSE MATRIX DIRECT SOLVER

 CONTACT INFORMATION PRINTOUT LEVEL       1

 DO NOT COMBINE ELEMENT MATRIX FILES (.emat) AFTER DISTRIBUTED PARALLEL SOLUTION

 DO NOT COMBINE ELEMENT SAVE DATA FILES (.esav) AFTER DISTRIBUTED PARALLEL SOLUTION

 NLDIAG: Nonlinear diagnostics CONT option is set to ON. 
         Writing frequency : each ITERATION.

 DO NOT SAVE ANY RESTART FILES AT ALL
 ****************************************************
 ******************* SOLVE FOR LS 1 OF 1 ****************

 SELECT       FOR ITEM=TYPE COMPONENT=    
  IN RANGE         2 TO          2 STEP          1

         16  ELEMENTS (OF         64  DEFINED) SELECTED BY  ESEL  COMMAND.

 SELECT      ALL NODES HAVING ANY ELEMENT IN ELEMENT SET.

         69 NODES (OF        357  DEFINED) SELECTED FROM
       16 SELECTED ELEMENTS BY NSLE COMMAND.

 SPECIFIED SURFACE LOAD PRES FOR ALL SELECTED ELEMENTS  LKEY =  1   KVAL = 1
     VALUES =     0.0000         0.0000         0.0000         0.0000    

 SPECIFIED SURFACE LOAD PRES FOR ALL SELECTED ELEMENTS  LKEY =  2   KVAL = 1
     VALUES =     0.0000         0.0000         0.0000         0.0000    

 SPECIFIED SURFACE LOAD PRES FOR ALL SELECTED ELEMENTS  LKEY =  3   KVAL = 1
     VALUES =    -50000.        -50000.        -50000.        -50000.    

 ALL SELECT   FOR ITEM=NODE COMPONENT=    
  IN RANGE         1 TO        357 STEP          1

        357  NODES (OF        357  DEFINED) SELECTED BY NSEL  COMMAND.

 ALL SELECT   FOR ITEM=ELEM COMPONENT=    
  IN RANGE         1 TO        156 STEP          1

         64  ELEMENTS (OF         64  DEFINED) SELECTED BY  ESEL  COMMAND.

 PRINTOUT RESUMED BY /GOP

 USE       1 SUBSTEPS INITIALLY THIS LOAD STEP FOR ALL  DEGREES OF FREEDOM
 FOR AUTOMATIC TIME STEPPING:
   USE      1 SUBSTEPS AS A MAXIMUM
   USE      1 SUBSTEPS AS A MINIMUM

 TIME=  1.0000    

 ERASE THE CURRENT DATABASE OUTPUT CONTROL TABLE.


 WRITE ALL  ITEMS TO THE DATABASE WITH A FREQUENCY OF NONE
   FOR ALL APPLICABLE ENTITIES

 WRITE NSOL ITEMS TO THE DATABASE WITH A FREQUENCY OF ALL 
   FOR ALL APPLICABLE ENTITIES

 WRITE RSOL ITEMS TO THE DATABASE WITH A FREQUENCY OF ALL 
   FOR ALL APPLICABLE ENTITIES

 WRITE EANG ITEMS TO THE DATABASE WITH A FREQUENCY OF ALL 
   FOR ALL APPLICABLE ENTITIES

 WRITE ETMP ITEMS TO THE DATABASE WITH A FREQUENCY OF ALL 
   FOR ALL APPLICABLE ENTITIES

 WRITE VENG ITEMS TO THE DATABASE WITH A FREQUENCY OF ALL 
   FOR ALL APPLICABLE ENTITIES

 WRITE STRS ITEMS TO THE DATABASE WITH A FREQUENCY OF ALL 
   FOR ALL APPLICABLE ENTITIES

 WRITE EPEL ITEMS TO THE DATABASE WITH A FREQUENCY OF ALL 
   FOR ALL APPLICABLE ENTITIES

 WRITE EPPL ITEMS TO THE DATABASE WITH A FREQUENCY OF ALL 
   FOR ALL APPLICABLE ENTITIES

 WRITE CONT ITEMS TO THE DATABASE WITH A FREQUENCY OF ALL 
   FOR ALL APPLICABLE ENTITIES

 *GET  ANSINTER_  FROM  ACTI  ITEM=INT        VALUE=  0.00000000    

 *IF  ANSINTER_                         ( =   0.00000     )  NE  
      0                                 ( =   0.00000     )  THEN    

 *ENDIF

 *** NOTE ***                            CP =       3.641   TIME= 10:31:44
 The automatic domain decomposition logic has selected the MESH domain   
 decomposition method with 16 processes per solution.                    

 *****  ANSYS SOLVE    COMMAND  *****

 *** WARNING ***                         CP =       3.656   TIME= 10:31:44
 Element shape checking is currently inactive.  Issue SHPP,ON or         
 SHPP,WARN to reactivate, if desired.                                    

 *** NOTE ***                            CP =       3.656   TIME= 10:31:44
 The model data was checked and warning messages were found.             
  Please review output or errors file (                                  
 C:\Users\robin\Documents\_ProjectScratch\ScrF64A\file0.err ) for these  
 warning messages.                                                       

 *** SELECTION OF ELEMENT TECHNOLOGIES FOR APPLICABLE ELEMENTS ***
      --- GIVE SUGGESTIONS AND RESET THE KEY OPTIONS ---

 ELEMENT TYPE    1 IS SOLID186. KEYOPT(2)=0 IS SUGGESTED AND HAS BEEN RESET.
  KEYOPT(1-12)=    0    0    0    0    0    0    0    0    0    0    0    0



 *** ANSYS - ENGINEERING ANALYSIS SYSTEM  RELEASE 2020 R2          20.2     ***
 DISTRIBUTED ANSYS Academic Research                           

 00207209  VERSION=WINDOWS x64   10:31:44  JAN 14, 2021 CP=      3.656

 cantilever_simple--Static Structural (A5)                                     



                       S O L U T I O N   O P T I O N S

   PROBLEM DIMENSIONALITY. . . . . . . . . . . . .3-D                  
   DEGREES OF FREEDOM. . . . . . UX   UY   UZ  
   ANALYSIS TYPE . . . . . . . . . . . . . . . . .STATIC (STEADY-STATE)
   OFFSET TEMPERATURE FROM ABSOLUTE ZERO . . . . .  273.15    
   EQUATION SOLVER OPTION. . . . . . . . . . . . .SPARSE             
   GLOBALLY ASSEMBLED MATRIX . . . . . . . . . . .SYMMETRIC  

 *** WARNING ***                         CP =       3.656   TIME= 10:31:44
 Material number 2 (used by element 141) should normally have at least   
 one MP or one TB type command associated with it.  Output of energy by  
 material may not be available.                                          

 *** NOTE ***                            CP =       3.656   TIME= 10:31:44
 The step data was checked and warning messages were found.              
  Please review output or errors file (                                  
 C:\Users\robin\Documents\_ProjectScratch\ScrF64A\file0.err ) for these  
 warning messages.                                                       

 *** NOTE ***                            CP =       3.656   TIME= 10:31:44
 The conditions for direct assembly have been met.  No .emat or .erot    
 files will be produced.                                                 

  
  
     D I S T R I B U T E D   D O M A I N   D E C O M P O S E R
  
  ...Number of elements: 64
  ...Number of nodes:    357
  ...Decompose to 16 CPU domains
  ...Element load balance ratio =     2.000


                      L O A D   S T E P   O P T I O N S

   LOAD STEP NUMBER. . . . . . . . . . . . . . . .     1
   TIME AT END OF THE LOAD STEP. . . . . . . . . .  1.0000    
   NUMBER OF SUBSTEPS. . . . . . . . . . . . . . .     1
   STEP CHANGE BOUNDARY CONDITIONS . . . . . . . .    NO
   PRINT OUTPUT CONTROLS . . . . . . . . . . . . .NO PRINTOUT
   DATABASE OUTPUT CONTROLS
      ITEM     FREQUENCY   COMPONENT
       ALL       NONE               
      NSOL        ALL               
      RSOL        ALL               
      EANG        ALL               
      ETMP        ALL               
      VENG        ALL               
      STRS        ALL               
      EPEL        ALL               
      EPPL        ALL               
      CONT        ALL               


 SOLUTION MONITORING INFO IS WRITTEN TO FILE= file.mntr                                                                                                                                                                                                                                                           



                         ***********  PRECISE MASS SUMMARY  ***********

   TOTAL RIGID BODY MASS MATRIX ABOUT ORIGIN
               Translational mass               |   Coupled translational/rotational mass
         471.00        0.0000        0.0000     |     0.0000        70.650       -47.100    
         0.0000        471.00        0.0000     |    -70.650        0.0000       -235.50    
         0.0000        0.0000        471.00     |     47.100        235.50        0.0000    
     ------------------------------------------ | ------------------------------------------
                                                |         Rotational mass (inertia)
                                                |     20.410        23.550        35.325    
                                                |     23.550        171.13       -7.0650    
                                                |     35.325       -7.0650        163.28    

   TOTAL MASS =  471.00    
     The mass principal axes coincide with the global Cartesian axes

   CENTER OF MASS (X,Y,Z)=  -0.50000       0.10000       0.15000    

   TOTAL INERTIA ABOUT CENTER OF MASS
         5.1025      -0.10059E-13   0.26035E-14
       -0.10059E-13    42.783       0.22217E-14
        0.26035E-14   0.22217E-14    40.820    
     The inertia principal axes coincide with the global Cartesian axes


  *** MASS SUMMARY BY ELEMENT TYPE ***

  TYPE      MASS
     1   471.000    

 Range of element maximum matrix coefficients in global coordinates
 Maximum = 2.227920228E+10 at element 6.                                 
 Minimum = 2.227920228E+10 at element 7.                                 

   *** ELEMENT MATRIX FORMULATION TIMES
     TYPE    NUMBER   ENAME      TOTAL CP  AVE CP

        1        48  SOLID186      0.016   0.000326
        2        16  SURF154       0.000   0.000000
 Time at end of element matrix formulation CP = 3.875.                   

 DISTRIBUTED SPARSE MATRIX DIRECT SOLVER.
  Number of equations =         984,    Maximum wavefront =    123

  Local memory allocated for solver              =      4.143 MB
  Local memory required for in-core solution     =      3.952 MB
  Local memory required for out-of-core solution =      3.794 MB

  Total memory allocated for solver              =     71.594 MB
  Total memory required for in-core solution     =     68.245 MB
  Total memory required for out-of-core solution =     57.696 MB

 *** NOTE ***                            CP =       3.938   TIME= 10:31:44
 The Distributed Sparse Matrix Solver is currently running in the        
 in-core memory mode.  This memory mode uses the most amount of memory   
 in order to avoid using the hard drive as much as possible, which most  
 often results in the fastest solution time.  This mode is recommended   
 if enough physical memory is present to accommodate all of the solver   
 data.                                                                   
 curEqn=    111  totEqn=    111 Job CP sec=      4.078
      Factor Done= 100% Factor Wall sec=      0.059 rate=      22.5 Mflops
 Distributed sparse solver maximum pivot= 5.420483595E+10 at node 125    
 UX.                                                                     
 Distributed sparse solver minimum pivot= 781661210 at node 161 UY.      
 Distributed sparse solver minimum pivot in absolute value= 781661210 at 
 node 161 UY.                                                            

   *** ELEMENT RESULT CALCULATION TIMES
     TYPE    NUMBER   ENAME      TOTAL CP  AVE CP

        1        48  SOLID186      0.000   0.000000
        2        16  SURF154       0.000   0.000000

   *** NODAL LOAD CALCULATION TIMES
     TYPE    NUMBER   ENAME      TOTAL CP  AVE CP

        1        48  SOLID186      0.000   0.000000
        2        16  SURF154       0.000   0.000000
 *** LOAD STEP     1   SUBSTEP     1  COMPLETED.    CUM ITER =      1
 *** TIME =   1.00000         TIME INC =   1.00000      NEW TRIANG MATRIX


 *** ANSYS BINARY FILE STATISTICS
  BUFFER SIZE USED= 16384
        0.062 MB WRITTEN ON ASSEMBLED MATRIX FILE: file0.full
        0.312 MB WRITTEN ON RESULTS FILE: file0.rst
 *************** Write FE CONNECTORS *********

 WRITE OUT CONSTRAINT EQUATIONS TO FILE= file.ce                                                                                                                                                                                                                                                             
 ****************************************************
 *************** FINISHED SOLVE FOR LS 1 *************

 *GET  _WALLASOL  FROM  ACTI  ITEM=TIME WALL  VALUE=  10.5291667    

 PRINTOUT RESUMED BY /GOP

 FINISH SOLUTION PROCESSING


 ***** ROUTINE COMPLETED *****  CP =         4.250



 *** ANSYS - ENGINEERING ANALYSIS SYSTEM  RELEASE 2020 R2          20.2     ***
 DISTRIBUTED ANSYS Academic Research                           

 00207209  VERSION=WINDOWS x64   10:31:45  JAN 14, 2021 CP=      4.438

 cantilever_simple--Static Structural (A5)                                     



          ***** ANSYS RESULTS INTERPRETATION (POST1) *****

 *** NOTE ***                            CP =       4.438   TIME= 10:31:45
 Reading results into the database (SET command) will update the current 
 displacement and force boundary conditions in the database with the     
 values from the results file for that load set.  Note that any          
 subsequent solutions will use these values unless action is taken to    
 either SAVE the current values or not overwrite them (/EXIT,NOSAVE).    

 Set Encoding of XML File to:ISO-8859-1

 Set Output of XML File to:
     PARM,     ,     ,     ,     ,     ,     ,     ,     ,     ,     ,     ,
         ,     ,     ,     ,     ,     ,     ,

 DATABASE WRITTEN ON FILE  parm.xml                                                                                                                                                                                                                                                            

 EXIT THE ANSYS POST1 DATABASE PROCESSOR


 ***** ROUTINE COMPLETED *****  CP =         4.547



 PRINTOUT RESUMED BY /GOP

 *GET  _WALLDONE  FROM  ACTI  ITEM=TIME WALL  VALUE=  10.5291667    

 PARAMETER _PREPTIME =     1.000000000    

 PARAMETER _SOLVTIME =     1.000000000    

 PARAMETER _POSTTIME =     0.000000000    

 PARAMETER _TOTALTIM =     2.000000000    

 *GET  _DLBRATIO  FROM  ACTI  ITEM=SOLU DLBR  VALUE=  2.00000000    

 *GET  _COMBTIME  FROM  ACTI  ITEM=SOLU COMB  VALUE= 0.361835000E-01
 --- Total number of nodes = 357
 --- Total number of elements = 64
 --- Element load balance ratio = 2
 --- Time to combine distributed files = 3.61835E-02

 EXIT ANSYS WITHOUT SAVING DATABASE


 NUMBER OF WARNING MESSAGES ENCOUNTERED=          2
 NUMBER OF ERROR   MESSAGES ENCOUNTERED=          0

+--------- D I S T R I B U T E D   A N S Y S   S T A T I S T I C S ------------+

Release: 2020 R2            Build: 20.2       Update: UP20200601   Platform: WINDOWS x64 
Date Run: 01/14/2021   Time: 10:31     Process ID: 8660
Operating System: Windows 10  (Build: 19042)

Processor Model: Intel(R) Core(TM) i9-9880H CPU @ 2.30GHz

Compiler: Intel(R) FORTRAN Compiler Version 19.0.0  (Build: 20190206)
          Intel(R) C/C++ Compiler Version 19.0.0  (Build: 20190206)
          Intel(R) Math Kernel Library Version 2020.0.0 Product Build 20191125

Number of machines requested            :    1
Total number of cores available         :   16
Number of physical cores available      :   16
Number of processes requested           :   16
Number of threads per process requested :    1
Total number of cores requested         :   16 (Distributed Memory Parallel)               
MPI Type: INTELMPI
MPI Version: Intel(R) MPI Library 2018 Update 3 for Windows* OS


GPU Acceleration: Not Requested

Job Name: file0
Input File: dummy.dat

  Core                Machine Name   Working Directory
 -----------------------------------------------------
     0             DESKTOP-6I1E0KC   C:\Users\robin\Documents\_ProjectScratch\ScrF64A
     1             DESKTOP-6I1E0KC   C:\Users\robin\Documents\_ProjectScratch\ScrF64A
     2             DESKTOP-6I1E0KC   C:\Users\robin\Documents\_ProjectScratch\ScrF64A
     3             DESKTOP-6I1E0KC   C:\Users\robin\Documents\_ProjectScratch\ScrF64A
     4             DESKTOP-6I1E0KC   C:\Users\robin\Documents\_ProjectScratch\ScrF64A
     5             DESKTOP-6I1E0KC   C:\Users\robin\Documents\_ProjectScratch\ScrF64A
     6             DESKTOP-6I1E0KC   C:\Users\robin\Documents\_ProjectScratch\ScrF64A
     7             DESKTOP-6I1E0KC   C:\Users\robin\Documents\_ProjectScratch\ScrF64A
     8             DESKTOP-6I1E0KC   C:\Users\robin\Documents\_ProjectScratch\ScrF64A
     9             DESKTOP-6I1E0KC   C:\Users\robin\Documents\_ProjectScratch\ScrF64A
    10             DESKTOP-6I1E0KC   C:\Users\robin\Documents\_ProjectScratch\ScrF64A
    11             DESKTOP-6I1E0KC   C:\Users\robin\Documents\_ProjectScratch\ScrF64A
    12             DESKTOP-6I1E0KC   C:\Users\robin\Documents\_ProjectScratch\ScrF64A
    13             DESKTOP-6I1E0KC   C:\Users\robin\Documents\_ProjectScratch\ScrF64A
    14             DESKTOP-6I1E0KC   C:\Users\robin\Documents\_ProjectScratch\ScrF64A
    15             DESKTOP-6I1E0KC   C:\Users\robin\Documents\_ProjectScratch\ScrF64A
 
Latency time from master to core     1 =    2.098 microseconds
Latency time from master to core     2 =    2.039 microseconds
Latency time from master to core     3 =    2.151 microseconds
Latency time from master to core     4 =    1.791 microseconds
Latency time from master to core     5 =    1.921 microseconds
Latency time from master to core     6 =    1.712 microseconds
Latency time from master to core     7 =    1.727 microseconds
Latency time from master to core     8 =    3.680 microseconds
Latency time from master to core     9 =    1.739 microseconds
Latency time from master to core    10 =    1.842 microseconds
Latency time from master to core    11 =    1.762 microseconds
Latency time from master to core    12 =    1.831 microseconds
Latency time from master to core    13 =    2.129 microseconds
Latency time from master to core    14 =    1.849 microseconds
Latency time from master to core    15 =    1.970 microseconds
 
Communication speed from master to core     1 =  3026.12 MB/sec
Communication speed from master to core     2 =  2607.30 MB/sec
Communication speed from master to core     3 =  3685.94 MB/sec
Communication speed from master to core     4 =  1869.74 MB/sec
Communication speed from master to core     5 =  3703.17 MB/sec
Communication speed from master to core     6 =  2806.32 MB/sec
Communication speed from master to core     7 =  3227.00 MB/sec
Communication speed from master to core     8 =  4508.19 MB/sec
Communication speed from master to core     9 =  4006.87 MB/sec
Communication speed from master to core    10 =  4203.93 MB/sec
Communication speed from master to core    11 =  4364.07 MB/sec
Communication speed from master to core    12 =  4303.16 MB/sec
Communication speed from master to core    13 =  3510.02 MB/sec
Communication speed from master to core    14 =  3349.23 MB/sec
Communication speed from master to core    15 =  4254.50 MB/sec

Total CPU time for main thread                    :        2.2 seconds
Total CPU time summed for all threads             :        5.5 seconds

Elapsed time spent obtaining a license            :        0.7 seconds
Elapsed time spent pre-processing model (/PREP7)  :        0.2 seconds
Elapsed time spent solution - preprocessing       :        0.2 seconds
Elapsed time spent computing solution             :        0.7 seconds
Elapsed time spent solution - postprocessing      :        0.0 seconds
Elapsed time spent post-processing model (/POST1) :        0.0 seconds
 
Equation solver used                              :            Sparse (symmetric)
Equation solver computational rate                :        0.1 Gflops
Equation solver effective I/O rate                :        0.1 GB/sec

Maximum total memory used                         :      704.0 MB
Maximum total memory allocated                    :    17472.0 MB
Total physical memory available                   :         16 GB

Total amount of I/O written to disk               :        0.0 GB
Total amount of I/O read from disk                :        0.0 GB

+------ E N D   D I S T R I B U T E D   A N S Y S   S T A T I S T I C S -------+


 *---------------------------------------------------------------------------*
 |                                                                           |
 |                       DISTRIBUTED ANSYS RUN COMPLETED                     |
 |                                                                           |
 |---------------------------------------------------------------------------|
 |                                                                           |
 | Ansys 2020 R2               Build 20.2         UP20200601     WINDOWS x64 |
 |                                                                           |
 |---------------------------------------------------------------------------|
 |                                                                           |
 | Database Requested(-db)  1024 MB    Scratch Memory Requested      1024 MB |
 | Maximum Database Used       1 MB    Maximum Scratch Memory Used     43 MB |
 |                                                                           |
 |---------------------------------------------------------------------------|
 |                                                                           |
 |        CP Time      (sec) =          5.484       Time  =  10:31:46        |
 |        Elapsed Time (sec) =          5.000       Date  =  01/14/2021      |
 |                                                                           |
 *---------------------------------------------------------------------------*
