
 ANSYS Academic Research                           


 *------------------------------------------------------------------*
 |                                                                  |
 |   W E L C O M E   T O   T H E   A N S Y S (R)  P R O G R A M     |
 |                                                                  |
 *------------------------------------------------------------------*




 ***************************************************************
 *            ANSYS 2020 R2          LEGAL NOTICES             *
 ***************************************************************
 *                                                             *
 * Copyright 1971-2020 ANSYS, Inc.  All rights reserved.       *
 * Unauthorized use, distribution or duplication is            *
 * prohibited.                                                 *
 *                                                             *
 * Ansys is a registered trademark of ANSYS, Inc. or its       *
 * subsidiaries in the United States or other countries.       *
 * See the ANSYS, Inc. online documentation or the ANSYS, Inc. *
 * documentation CD or online help for the complete Legal      *
 * Notice.                                                     *
 *                                                             *
 ***************************************************************
 *                                                             *
 * THIS ANSYS SOFTWARE PRODUCT AND PROGRAM DOCUMENTATION       *
 * INCLUDE TRADE SECRETS AND CONFIDENTIAL AND PROPRIETARY      *
 * PRODUCTS OF ANSYS, INC., ITS SUBSIDIARIES, OR LICENSORS.    *
 * The software products and documentation are furnished by    *
 * ANSYS, Inc. or its subsidiaries under a software license    *
 * agreement that contains provisions concerning               *
 * non-disclosure, copying, length and nature of use,          *
 * compliance with exporting laws, warranties, disclaimers,    *
 * limitations of liability, and remedies, and other           *
 * provisions.  The software products and documentation may be *
 * used, disclosed, transferred, or copied only in accordance  *
 * with the terms and conditions of that software license      *
 * agreement.                                                  *
 *                                                             *
 * ANSYS, Inc. is a UL registered                              *
 * ISO 9001:2015 company.                                      *
 *                                                             *
 ***************************************************************
 *                                                             *
 * This product is subject to U.S. laws governing export and   *
 * re-export.                                                  *
 *                                                             *
 * For U.S. Government users, except as specifically granted   *
 * by the ANSYS, Inc. software license agreement, the use,     *
 * duplication, or disclosure by the United States Government  *
 * is subject to restrictions stated in the ANSYS, Inc.        *
 * software license agreement and FAR 12.212 (for non-DOD      *
 * licenses).                                                  *
 *                                                             *
 ***************************************************************

 2020 R2 
     
 Point Releases and Patches installed:   
     
 ANSYS, Inc. Products 2020 R2
 SpaceClaim 2020 R2  
 Customization Files for User Programmable Features 2020 R2  
 Mechanical Products 2020 R2 
 Additive 2020 R2
 Remote Solve Manager Standalone Services 2020 R2
 Viewer 2020 R2  
 ANSYS, Inc. License Manager 2020 R2 


          *****  ANSYS COMMAND LINE ARGUMENTS  *****
  BATCH MODE REQUESTED (-b)    = NOLIST
  INPUT FILE COPY MODE (-c)    = COPY
  DISTRIBUTED MEMORY PARALLEL REQUESTED
      16 PARALLEL PROCESSES REQUESTED WITH SINGLE THREAD PER PROCESS
    TOTAL OF    16 CORES REQUESTED
  DESIGNXPLORER REQUESTED
  INPUT FILE NAME              = C:\Users\robin\Documents\TMJoint_v2\_ProjectScratch\Scr46B1\dummy.dat
  OUTPUT FILE NAME             = C:\Users\robin\Documents\TMJoint_v2\_ProjectScratch\Scr46B1\solve.out
  START-UP FILE MODE           = NOREAD
  STOP FILE MODE               = NOREAD

 RELEASE= 2020 R2              BUILD= 20.2      UP20200601   VERSION=WINDOWS x64 
 CURRENT JOBNAME=file0  10:57:01  DEC 09, 2020 CP=      0.250


 PARAMETER _DS_PROGRESS =     999.0000000    

 /INPUT FILE= ds.dat  LINE=       0



 *** NOTE ***                            CP =       0.781   TIME= 10:57:01
 The /CONFIG,NOELDB command is not valid in a Distributed ANSYS          
 solution.  Command is ignored.                                          

 *GET  _WALLSTRT  FROM  ACTI  ITEM=TIME WALL  VALUE=  10.9502778    

 TITLE= 
 tmjoint_static_bonded--Static Structural (A5)                                 


 SET PARAMETER DIMENSIONS ON  _WB_PROJECTSCRATCH_DIR
  TYPE=STRI  DIMENSIONS=      248        1        1

 PARAMETER _WB_PROJECTSCRATCH_DIR(1) = C:\Users\robin\Documents\TMJoint_v2\_ProjectScratch\Scr46B1\

 SET PARAMETER DIMENSIONS ON  _WB_SOLVERFILES_DIR
  TYPE=STRI  DIMENSIONS=      248        1        1

 PARAMETER _WB_SOLVERFILES_DIR(1) = C:\Users\robin\Documents\TMJoint_v2\tmjoint_static_bonded_files\dp0\SYS\MECH\

 SET PARAMETER DIMENSIONS ON  _WB_USERFILES_DIR
  TYPE=STRI  DIMENSIONS=      248        1        1

 PARAMETER _WB_USERFILES_DIR(1) = C:\Users\robin\Documents\TMJoint_v2\tmjoint_static_bonded_files\user_files\
 --- Data in consistent MKS units. See Solving Units in the help system for more

 MKS UNITS SPECIFIED FOR INTERNAL    
  LENGTH        (l)  = METER (M)
  MASS          (M)  = KILOGRAM (KG)
  TIME          (t)  = SECOND (SEC)
  TEMPERATURE   (T)  = CELSIUS (C)
  TOFFSET            = 273.0
  CHARGE        (Q)  = COULOMB
  FORCE         (f)  = NEWTON (N) (KG-M/SEC2)
  HEAT               = JOULE (N-M)

  PRESSURE           = PASCAL (NEWTON/M**2)
  ENERGY        (W)  = JOULE (N-M)
  POWER         (P)  = WATT (N-M/SEC)
  CURRENT       (i)  = AMPERE (COULOMBS/SEC)
  CAPACITANCE   (C)  = FARAD
  INDUCTANCE    (L)  = HENRY
  MAGNETIC FLUX      = WEBER
  RESISTANCE    (R)  = OHM
  ELECTRIC POTENTIAL = VOLT

 INPUT  UNITS ARE ALSO SET TO MKS 

 *** ANSYS - ENGINEERING ANALYSIS SYSTEM  RELEASE 2020 R2          20.2     ***
 DISTRIBUTED ANSYS Academic Research                           

 00207209  VERSION=WINDOWS x64   10:57:01  DEC 09, 2020 CP=      0.781

 tmjoint_static_bonded--Static Structural (A5)                                 



          ***** ANSYS ANALYSIS DEFINITION (PREP7) *****
 *********** Nodes for the whole assembly ***********
 *********** Elements for Body 1 "rightMeshTenonMortise_empty\Corps" ***********
 *********** Elements for Body 2 "leftMeshTenonMortise_empty\Corps" ***********
 *********** Send User Defined Coordinate System(s) ***********
 *********** Set Reference Temperature ***********
 *********** Send Materials ***********
 *********** Create Contact "Bonded - rightMeshTenonMortise_empty\Corps To leftM
             Real Constant Set For Above Contact Is 4 & 3
 *********** Fixed Supports ***********
 *********** Define Pressure Using Surface Effect Elements ***********


 ***** ROUTINE COMPLETED *****  CP =         2.312


 --- Number of total nodes = 980
 --- Number of contact elements = 224
 --- Number of spring elements = 0
 --- Number of bearing elements = 0
 --- Number of solid elements = 576
 --- Number of condensed parts = 0
 --- Number of total elements = 800

 *GET  _WALLBSOL  FROM  ACTI  ITEM=TIME WALL  VALUE=  10.9502778    
 ****************************************************************************
 *************************    SOLUTION       ********************************
 ****************************************************************************

 *****  ANSYS SOLUTION ROUTINE  *****


 PERFORM A STATIC ANALYSIS
  THIS WILL BE A NEW ANALYSIS

 PARAMETER _THICKRATIO =     1.000000000    

 USE PRECONDITIONED CONJUGATE GRADIENT SOLVER
  CONVERGENCE TOLERANCE = 1.00000E-08
  MAXIMUM ITERATION     = NumNode*DofPerNode*  1.0000    

 CONTACT INFORMATION PRINTOUT LEVEL       1

 DO NOT COMBINE ELEMENT MATRIX FILES (.emat) AFTER DISTRIBUTED PARALLEL SOLUTION

 DO NOT COMBINE ELEMENT SAVE DATA FILES (.esav) AFTER DISTRIBUTED PARALLEL SOLUTION

 NLDIAG: Nonlinear diagnostics CONT option is set to ON. 
         Writing frequency : each ITERATION.

 DO NOT SAVE ANY RESTART FILES AT ALL
 ****************************************************
 ******************* SOLVE FOR LS 1 OF 1 ****************

 SELECT       FOR ITEM=TYPE COMPONENT=    
  IN RANGE         5 TO          5 STEP          1

         64  ELEMENTS (OF        800  DEFINED) SELECTED BY  ESEL  COMMAND.

 SELECT      ALL NODES HAVING ANY ELEMENT IN ELEMENT SET.

         85 NODES (OF        980  DEFINED) SELECTED FROM
       64 SELECTED ELEMENTS BY NSLE COMMAND.

 GENERATE SURFACE LOAD PRES ON SURFACE DEFINED BY ALL SELECTED NODES
 VALUES=  300000.000      0.00000000    

 NUMBER OF PRES ELEMENT FACE LOADS STORED =         64

 ALL SELECT   FOR ITEM=NODE COMPONENT=    
  IN RANGE         1 TO        980 STEP          1

        980  NODES (OF        980  DEFINED) SELECTED BY NSEL  COMMAND.

 ALL SELECT   FOR ITEM=ELEM COMPONENT=    
  IN RANGE         1 TO       1488 STEP          1

        800  ELEMENTS (OF        800  DEFINED) SELECTED BY  ESEL  COMMAND.

 ALL SELECT   FOR ITEM=ELEM COMPONENT=    
  IN RANGE         1 TO       1488 STEP          1

        800  ELEMENTS (OF        800  DEFINED) SELECTED BY  ESEL  COMMAND.

 PRINTOUT RESUMED BY /GOP

 USE       1 SUBSTEPS INITIALLY THIS LOAD STEP FOR ALL  DEGREES OF FREEDOM
 FOR AUTOMATIC TIME STEPPING:
   USE      1 SUBSTEPS AS A MAXIMUM
   USE      1 SUBSTEPS AS A MINIMUM

 TIME=  1.0000    

 ERASE THE CURRENT DATABASE OUTPUT CONTROL TABLE.


 WRITE ALL  ITEMS TO THE DATABASE WITH A FREQUENCY OF NONE
   FOR ALL APPLICABLE ENTITIES

 WRITE NSOL ITEMS TO THE DATABASE WITH A FREQUENCY OF ALL 
   FOR ALL APPLICABLE ENTITIES

 WRITE RSOL ITEMS TO THE DATABASE WITH A FREQUENCY OF ALL 
   FOR ALL APPLICABLE ENTITIES

 WRITE EANG ITEMS TO THE DATABASE WITH A FREQUENCY OF ALL 
   FOR ALL APPLICABLE ENTITIES

 WRITE ETMP ITEMS TO THE DATABASE WITH A FREQUENCY OF ALL 
   FOR ALL APPLICABLE ENTITIES

 WRITE VENG ITEMS TO THE DATABASE WITH A FREQUENCY OF ALL 
   FOR ALL APPLICABLE ENTITIES

 WRITE STRS ITEMS TO THE DATABASE WITH A FREQUENCY OF ALL 
   FOR ALL APPLICABLE ENTITIES

 WRITE EPEL ITEMS TO THE DATABASE WITH A FREQUENCY OF ALL 
   FOR ALL APPLICABLE ENTITIES

 WRITE EPPL ITEMS TO THE DATABASE WITH A FREQUENCY OF ALL 
   FOR ALL APPLICABLE ENTITIES

 WRITE CONT ITEMS TO THE DATABASE WITH A FREQUENCY OF ALL 
   FOR ALL APPLICABLE ENTITIES

 *GET  ANSINTER_  FROM  ACTI  ITEM=INT        VALUE=  0.00000000    

 *IF  ANSINTER_                         ( =   0.00000     )  NE  
      0                                 ( =   0.00000     )  THEN    

 *ENDIF

 *** NOTE ***                            CP =       2.391   TIME= 10:57:01
 The automatic domain decomposition logic has selected the MESH domain   
 decomposition method with 16 processes per solution.                    

 *****  ANSYS SOLVE    COMMAND  *****

 *** WARNING ***                         CP =       2.391   TIME= 10:57:01
 Element shape checking is currently inactive.  Issue SHPP,ON or         
 SHPP,WARN to reactivate, if desired.                                    

 *** NOTE ***                            CP =       2.391   TIME= 10:57:01
 The model data was checked and warning messages were found.             
  Please review output or errors file (                                  
 C:\Users\robin\Documents\TMJoint_v2\_ProjectScratch\Scr46B1\file0.err   
 ) for these warning messages.                                           

 *** SELECTION OF ELEMENT TECHNOLOGIES FOR APPLICABLE ELEMENTS ***
      --- GIVE SUGGESTIONS AND RESET THE KEY OPTIONS ---

 ELEMENT TYPE    1 IS SOLID185. IT IS ASSOCIATED WITH LINEAR MATERIALS ONLY
 AND POISSON'S RATIO IS NOT GREATER THAN 0.49. KEYOPT(2)=3 IS SUGGESTED AND
 HAS BEEN RESET.
  KEYOPT(1-12)=    0    3    0    0    0    0    0    0    0    0    0    0

 ELEMENT TYPE    2 IS SOLID185. IT IS ASSOCIATED WITH LINEAR MATERIALS ONLY
 AND POISSON'S RATIO IS NOT GREATER THAN 0.49. KEYOPT(2)=3 IS SUGGESTED AND
 HAS BEEN RESET.
  KEYOPT(1-12)=    0    3    0    0    0    0    0    0    0    0    0    0



 *** ANSYS - ENGINEERING ANALYSIS SYSTEM  RELEASE 2020 R2          20.2     ***
 DISTRIBUTED ANSYS Academic Research                           

 00207209  VERSION=WINDOWS x64   10:57:01  DEC 09, 2020 CP=      2.391

 tmjoint_static_bonded--Static Structural (A5)                                 



                       S O L U T I O N   O P T I O N S

   PROBLEM DIMENSIONALITY. . . . . . . . . . . . .3-D                  
   DEGREES OF FREEDOM. . . . . . UX   UY   UZ  
   ANALYSIS TYPE . . . . . . . . . . . . . . . . .STATIC (STEADY-STATE)
   OFFSET TEMPERATURE FROM ABSOLUTE ZERO . . . . .  273.15    
   EQUATION SOLVER OPTION. . . . . . . . . . . . .PCG                
      TOLERANCE. . . . . . . . . . . . . . . . . . 1.00000E-08
   GLOBALLY ASSEMBLED MATRIX . . . . . . . . . . .SYMMETRIC  

 *** WARNING ***                         CP =       2.391   TIME= 10:57:01
 Material number 5 (used by element 1425) should normally have at least  
 one MP or one TB type command associated with it.  Output of energy by  
 material may not be available.                                          

 *** NOTE ***                            CP =       2.391   TIME= 10:57:01
 The step data was checked and warning messages were found.              
  Please review output or errors file (                                  
 C:\Users\robin\Documents\TMJoint_v2\_ProjectScratch\Scr46B1\file0.err   
 ) for these warning messages.                                           

 *** NOTE ***                            CP =       2.391   TIME= 10:57:01
 The conditions for direct assembly have been met.  No .emat or .erot    
 files will be produced.                                                 

 *** NOTE ***                            CP =       2.500   TIME= 10:57:01
 Symmetric Deformable- deformable contact pair identified by real        
 constant set 3 and contact element type 3 has been set up.  The         
 companion pair has real constant set ID 4.  Both pairs should have the  
 same behavior.                                                          
 *WARNING*: ANSYS has found the contact pairs have similar mesh patterns 
 which can cause overconstraint.  ANSYS will deactivate the current      
 pair and keep its companion pair.                                       
 Linear contact is defined
 Contact algorithm: Augmented Lagrange method
 Contact detection at: Gauss integration point
 Contact stiffness factor FKN                  10.000    
 The resulting initial contact stiffness      0.26863E+14
 Default penetration tolerance factor FTOLN   0.10000    
 The resulting penetration tolerance          0.59562E-02
 Default opening contact stiffness OPSF will be used.
 Default tangent stiffness factor FKT          1.0000    
 Use constant contact stiffness
 Default Max. friction stress TAUMAX          0.10000E+21
 Average contact surface length               0.48666E-01
 Average contact pair depth                   0.59562E-01
 Default pinball region factor PINB           0.25000    
 The resulting pinball region                 0.14890E-01
 Initial penetration/gap is excluded.
 Bonded contact (always) is defined.

 *** NOTE ***                            CP =       2.500   TIME= 10:57:01
 Max.  Initial penetration 0 was detected between contact element 1305   
 and target element 1396.                                                
 ****************************************
  

 *** NOTE ***                            CP =       2.500   TIME= 10:57:01
 Symmetric Deformable- deformable contact pair identified by real        
 constant set 4 and contact element type 3 has been set up.  The         
 companion pair has real constant set ID 3.  Both pairs should have the  
 same behavior.                                                          
 ANSYS will keep the current pair and deactivate its companion pair,     
 resulting in asymmetric contact.                                        
 Linear contact is defined
 Contact algorithm: Augmented Lagrange method
 Contact detection at: Gauss integration point
 Contact stiffness factor FKN                  10.000    
 The resulting initial contact stiffness      0.26863E+14
 Default penetration tolerance factor FTOLN   0.10000    
 The resulting penetration tolerance          0.50790E-02
 Default opening contact stiffness OPSF will be used.
 Default tangent stiffness factor FKT          1.0000    
 Use constant contact stiffness
 Default Max. friction stress TAUMAX          0.10000E+21
 Average contact surface length               0.48666E-01
 Average contact pair depth                   0.50790E-01
 Default pinball region factor PINB           0.25000    
 The resulting pinball region                 0.12697E-01
 Initial penetration/gap is excluded.
 Bonded contact (always) is defined.

 *** NOTE ***                            CP =       2.500   TIME= 10:57:01
 Max.  Initial penetration 1.110223025E-16 was detected between contact  
 element 1369 and target element 1281.                                   
 ****************************************
  
  
  

  
  
     D I S T R I B U T E D   D O M A I N   D E C O M P O S E R
  
  ...Number of elements: 800
  ...Number of nodes:    980
  ...Decompose to 16 CPU domains
  ...Element load balance ratio =     1.956


                      L O A D   S T E P   O P T I O N S

   LOAD STEP NUMBER. . . . . . . . . . . . . . . .     1
   TIME AT END OF THE LOAD STEP. . . . . . . . . .  1.0000    
   NUMBER OF SUBSTEPS. . . . . . . . . . . . . . .     1
   STEP CHANGE BOUNDARY CONDITIONS . . . . . . . .    NO
   PRINT OUTPUT CONTROLS . . . . . . . . . . . . .NO PRINTOUT
   DATABASE OUTPUT CONTROLS
      ITEM     FREQUENCY   COMPONENT
       ALL       NONE               
      NSOL        ALL               
      RSOL        ALL               
      EANG        ALL               
      ETMP        ALL               
      VENG        ALL               
      STRS        ALL               
      EPEL        ALL               
      EPPL        ALL               
      CONT        ALL               


 SOLUTION MONITORING INFO IS WRITTEN TO FILE= file.mntr                                                                                                                                                                                                                                                           


 *** NOTE ***                            CP =       3.719   TIME= 10:57:02
 The PCG solver has automatically set the level of difficulty for this   
 model to 1.                                                             

 Range of element maximum matrix coefficients in global coordinates
 Maximum = 9.949234175E+09 at element 1372.                              
 Minimum = 106197944 at element 3.                                       

   *** ELEMENT MATRIX FORMULATION TIMES
     TYPE    NUMBER   ENAME      TOTAL CP  AVE CP

        1       268  SOLID185      0.031   0.000117
        2       308  SOLID185      0.016   0.000051
        3        80  CONTA174      0.016   0.000195
        4        80  TARGE170      0.000   0.000000
        5        64  SURF154       0.031   0.000488
 Time at end of element matrix formulation CP = 4.                       
 curEqn=     24  totEqn=     24 Job CP sec=      4.250
      Factor Done= 100% Factor Wall sec=      0.013 rate=       3.2 Mflops
 Iteration=     5 Ratio=  0.237063     Limit=  1.000000E-08 Wall=     0.0
 Iteration=    70 Ratio=  6.956965E-04 Limit=  1.000000E-08 Wall=     0.1
 Iteration=   145 Ratio=  2.681336E-06 Limit=  1.000000E-08 Wall=     0.2

 DISTRIBUTED PCG SOLVER SOLUTION CONVERGED

 DISTRIBUTED PCG SOLVER SOLUTION STATISTICS

   NUMBER OF ITERATIONS=         219
   NUMBER OF EQUATIONS =        2940
   LEVEL OF CONVERGENCE=           1
   CALCULATED NORM     = 0.96106E-08
   SPECIFIED TOLERANCE = 0.10000E-07
   TOTAL CPU TIME (sec)=        0.55
   TOTAL WALL TIME(sec)=        0.55
   TOTAL MEMORY (GB)   =        0.00


   *** ELEMENT RESULT CALCULATION TIMES
     TYPE    NUMBER   ENAME      TOTAL CP  AVE CP

        1       268  SOLID185      0.031   0.000117
        2       308  SOLID185      0.031   0.000101
        3        80  CONTA174      0.000   0.000000
        5        64  SURF154       0.000   0.000000

   *** NODAL LOAD CALCULATION TIMES
     TYPE    NUMBER   ENAME      TOTAL CP  AVE CP

        1       268  SOLID185      0.000   0.000000
        2       308  SOLID185      0.000   0.000000
        3        80  CONTA174      0.016   0.000195
        5        64  SURF154       0.000   0.000000
 *** LOAD STEP     1   SUBSTEP     1  COMPLETED.    CUM ITER =      1
 *** TIME =   1.00000         TIME INC =   1.00000      NEW TRIANG MATRIX


 *** ANSYS BINARY FILE STATISTICS
  BUFFER SIZE USED= 16384
        0.062 MB WRITTEN ON ELEMENT SAVED DATA FILE: file0.esav
        0.375 MB WRITTEN ON RESULTS FILE: file0.rst
 *************** Write FE CONNECTORS *********

 WRITE OUT CONSTRAINT EQUATIONS TO FILE= file.ce                                                                                                                                                                                                                                                             
 ****************************************************
 *************** FINISHED SOLVE FOR LS 1 *************

 *GET  _WALLASOL  FROM  ACTI  ITEM=TIME WALL  VALUE=  10.9505556    

 PRINTOUT RESUMED BY /GOP

 *GET  _PCGITER  FROM  ACTI  ITEM=SOLU CGIT  VALUE=  219.000000    

 FINISH SOLUTION PROCESSING


 ***** ROUTINE COMPLETED *****  CP =         4.719



 *** ANSYS - ENGINEERING ANALYSIS SYSTEM  RELEASE 2020 R2          20.2     ***
 DISTRIBUTED ANSYS Academic Research                           

 00207209  VERSION=WINDOWS x64   10:57:02  DEC 09, 2020 CP=      4.719

 tmjoint_static_bonded--Static Structural (A5)                                 



          ***** ANSYS RESULTS INTERPRETATION (POST1) *****

 *** NOTE ***                            CP =       4.719   TIME= 10:57:02
 Reading results into the database (SET command) will update the current 
 displacement and force boundary conditions in the database with the     
 values from the results file for that load set.  Note that any          
 subsequent solutions will use these values unless action is taken to    
 either SAVE the current values or not overwrite them (/EXIT,NOSAVE).    

 Set Encoding of XML File to:ISO-8859-1

 Set Output of XML File to:
     PARM,     ,     ,     ,     ,     ,     ,     ,     ,     ,     ,     ,
         ,     ,     ,     ,     ,     ,     ,

 DATABASE WRITTEN ON FILE  parm.xml                                                                                                                                                                                                                                                            

 EXIT THE ANSYS POST1 DATABASE PROCESSOR


 ***** ROUTINE COMPLETED *****  CP =         4.875



 PRINTOUT RESUMED BY /GOP

 *GET  _WALLDONE  FROM  ACTI  ITEM=TIME WALL  VALUE=  10.9508333    

 PARAMETER _PREPTIME =     0.000000000    

 PARAMETER _SOLVTIME =     1.000000000    

 PARAMETER _POSTTIME =     1.000000000    

 PARAMETER _TOTALTIM =     2.000000000    

 *GET  _DLBRATIO  FROM  ACTI  ITEM=SOLU DLBR  VALUE=  1.95555556    

 *GET  _COMBTIME  FROM  ACTI  ITEM=SOLU COMB  VALUE= 0.319908000E-01
 --- Total number of nodes = 980
 --- Total number of elements = 800
 --- Element load balance ratio = 1.95555556
 --- Time to combine distributed files = 3.19908E-02

 EXIT ANSYS WITHOUT SAVING DATABASE


 NUMBER OF WARNING MESSAGES ENCOUNTERED=          2
 NUMBER OF ERROR   MESSAGES ENCOUNTERED=          0

+--------- D I S T R I B U T E D   A N S Y S   S T A T I S T I C S ------------+

Release: 2020 R2            Build: 20.2       Update: UP20200601   Platform: WINDOWS x64 
Date Run: 12/09/2020   Time: 10:57     Process ID: 4844
Operating System: Windows 10  (Build: 19042)

Processor Model: Intel(R) Core(TM) i9-9880H CPU @ 2.30GHz

Compiler: Intel(R) FORTRAN Compiler Version 19.0.0  (Build: 20190206)
          Intel(R) C/C++ Compiler Version 19.0.0  (Build: 20190206)
          Intel(R) Math Kernel Library Version 2020.0.0 Product Build 20191125

Number of machines requested            :    1
Total number of cores available         :   16
Number of physical cores available      :   16
Number of processes requested           :   16
Number of threads per process requested :    1
Total number of cores requested         :   16 (Distributed Memory Parallel)               
MPI Type: INTELMPI
MPI Version: Intel(R) MPI Library 2018 Update 3 for Windows* OS


GPU Acceleration: Not Requested

Job Name: file0
Input File: dummy.dat

  Core                Machine Name   Working Directory
 -----------------------------------------------------
     0             DESKTOP-6I1E0KC   C:\Users\robin\Documents\TMJoint_v2\_ProjectScratch\Scr46B1
     1             DESKTOP-6I1E0KC   C:\Users\robin\Documents\TMJoint_v2\_ProjectScratch\Scr46B1
     2             DESKTOP-6I1E0KC   C:\Users\robin\Documents\TMJoint_v2\_ProjectScratch\Scr46B1
     3             DESKTOP-6I1E0KC   C:\Users\robin\Documents\TMJoint_v2\_ProjectScratch\Scr46B1
     4             DESKTOP-6I1E0KC   C:\Users\robin\Documents\TMJoint_v2\_ProjectScratch\Scr46B1
     5             DESKTOP-6I1E0KC   C:\Users\robin\Documents\TMJoint_v2\_ProjectScratch\Scr46B1
     6             DESKTOP-6I1E0KC   C:\Users\robin\Documents\TMJoint_v2\_ProjectScratch\Scr46B1
     7             DESKTOP-6I1E0KC   C:\Users\robin\Documents\TMJoint_v2\_ProjectScratch\Scr46B1
     8             DESKTOP-6I1E0KC   C:\Users\robin\Documents\TMJoint_v2\_ProjectScratch\Scr46B1
     9             DESKTOP-6I1E0KC   C:\Users\robin\Documents\TMJoint_v2\_ProjectScratch\Scr46B1
    10             DESKTOP-6I1E0KC   C:\Users\robin\Documents\TMJoint_v2\_ProjectScratch\Scr46B1
    11             DESKTOP-6I1E0KC   C:\Users\robin\Documents\TMJoint_v2\_ProjectScratch\Scr46B1
    12             DESKTOP-6I1E0KC   C:\Users\robin\Documents\TMJoint_v2\_ProjectScratch\Scr46B1
    13             DESKTOP-6I1E0KC   C:\Users\robin\Documents\TMJoint_v2\_ProjectScratch\Scr46B1
    14             DESKTOP-6I1E0KC   C:\Users\robin\Documents\TMJoint_v2\_ProjectScratch\Scr46B1
    15             DESKTOP-6I1E0KC   C:\Users\robin\Documents\TMJoint_v2\_ProjectScratch\Scr46B1
 
Latency time from master to core     1 =    1.785 microseconds
Latency time from master to core     2 =    1.826 microseconds
Latency time from master to core     3 =    6.687 microseconds
Latency time from master to core     4 =    1.902 microseconds
Latency time from master to core     5 =    1.794 microseconds
Latency time from master to core     6 =    1.818 microseconds
Latency time from master to core     7 =    1.883 microseconds
Latency time from master to core     8 =    1.847 microseconds
Latency time from master to core     9 =    1.774 microseconds
Latency time from master to core    10 =    1.816 microseconds
Latency time from master to core    11 =    1.807 microseconds
Latency time from master to core    12 =    1.852 microseconds
Latency time from master to core    13 =    1.794 microseconds
Latency time from master to core    14 =    1.798 microseconds
Latency time from master to core    15 =    4.673 microseconds
 
Communication speed from master to core     1 =  4748.17 MB/sec
Communication speed from master to core     2 =  4510.42 MB/sec
Communication speed from master to core     3 =  4893.21 MB/sec
Communication speed from master to core     4 =  5528.87 MB/sec
Communication speed from master to core     5 =  5136.73 MB/sec
Communication speed from master to core     6 =  5259.18 MB/sec
Communication speed from master to core     7 =  5177.93 MB/sec
Communication speed from master to core     8 =  5611.04 MB/sec
Communication speed from master to core     9 =  5498.62 MB/sec
Communication speed from master to core    10 =  5314.70 MB/sec
Communication speed from master to core    11 =  5532.04 MB/sec
Communication speed from master to core    12 =  5237.32 MB/sec
Communication speed from master to core    13 =  3817.16 MB/sec
Communication speed from master to core    14 =  5012.28 MB/sec
Communication speed from master to core    15 =  5552.01 MB/sec

Total CPU time for main thread                    :        2.0 seconds
Total CPU time summed for all threads             :        5.5 seconds

Elapsed time spent obtaining a license            :        0.7 seconds
Elapsed time spent pre-processing model (/PREP7)  :        0.1 seconds
Elapsed time spent solution - preprocessing       :        0.1 seconds
Elapsed time spent computing solution             :        0.8 seconds
Elapsed time spent solution - postprocessing      :        0.0 seconds
Elapsed time spent post-processing model (/POST1) :        0.0 seconds
 
Equation solver used                              :            PCG (symmetric)
Equation solver computational rate                :        2.0 Gflops

Maximum total memory used                         :      704.0 MB
Maximum total memory allocated                    :    17472.0 MB
Total physical memory available                   :         16 GB

Total amount of I/O written to disk               :        0.0 GB
Total amount of I/O read from disk                :        0.0 GB

+------ E N D   D I S T R I B U T E D   A N S Y S   S T A T I S T I C S -------+


 *---------------------------------------------------------------------------*
 |                                                                           |
 |                       DISTRIBUTED ANSYS RUN COMPLETED                     |
 |                                                                           |
 |---------------------------------------------------------------------------|
 |                                                                           |
 | Ansys 2020 R2               Build 20.2         UP20200601     WINDOWS x64 |
 |                                                                           |
 |---------------------------------------------------------------------------|
 |                                                                           |
 | Database Requested(-db)  1024 MB    Scratch Memory Requested      1024 MB |
 | Maximum Database Used       2 MB    Maximum Scratch Memory Used     43 MB |
 |                                                                           |
 |---------------------------------------------------------------------------|
 |                                                                           |
 |        CP Time      (sec) =          5.453       Time  =  10:57:03        |
 |        Elapsed Time (sec) =          4.000       Date  =  12/09/2020      |
 |                                                                           |
 *---------------------------------------------------------------------------*
