** compas_fea-Structure
*Heading
** Job name: compas_fea-Structure
** Generated by: compas_fea2
*Preprint, echo=NO, history=NO, contact=NO
*PHYSICAL CONSTANTS, ABSOLUTE ZERO=-273.15, STEFAN BOLTZMANN=5.67e-8
**
** PARTS
**
*Part, name=test
*Node
 0,    1.000,    2.000,    3.000
 1,    2.000,    1.000,    3.000
 2,    3.000,    0.000,    3.000
 3,    4.000,    -1.000,    3.000
 4,    5.000,    -2.000,    3.000
*Element, type=C3D4, elset=section_A
0, 0,1,2,3
1, 0,1,2,3
2, 1,2,3,4
3, 0,1,2,3
** Section: section_A
*Solid Section, elset=None, material=elastic
,
*End Part
****
** ASSEMBLY
**
*Assembly, name=test
***Instance, name=test_instance, part=test
*End Instance
**
*nset, nset=test_neset
0
1
2
3
4
*End Assembly
**** MATERIALS
**
*Material, name=elastic
*Density
3,
*Elastic
1, 2
*NO COMPRESSION
*NO TENSION
