*Heading
** Job name: test_structure
** Generated using compas_fea2 version 0.1.0-8e9bfc20
** Author: N/A
** Date: 06/02/2022 15:36:45
**
*PHYSICAL CONSTANTS, ABSOLUTE ZERO=-273.15, STEFAN BOLTZMANN=5.67e-8
**
**------------------------------------------------------------------
**------------------------------------------------------------------
** MODEL
**------------------------------------------------------------------
**------------------------------------------------------------------
**
**
** PARTS
**
*Part, name=frame
*Node
         1,      0.000,      0.000,      0.000
         2,      1.000,      0.000,      0.000
         3,      2.000,      0.000,      0.000
         4,      3.000,      0.000,      0.000
         5,      4.000,      0.000,      0.000
         6,      5.000,      0.000,      0.000
         7,      6.000,      0.000,      0.000
         8,      7.000,      0.000,      0.000
         9,      8.000,      0.000,      0.000
        10,      9.000,      0.000,      0.000
        11,     10.000,      0.000,      0.000
        12,     10.000,      1.000,      0.000
        13,     10.000,      2.000,      0.000
        14,     10.000,      3.000,      0.000
        15,     10.000,      4.000,      0.000
        16,     10.000,      5.000,      0.000
        17,      9.000,      5.000,      0.000
        18,      8.000,      5.000,      0.000
        19,      7.000,      5.000,      0.000
        20,      6.000,      5.000,      0.000
** ... 10 like lines cut
*Element, type=B31
10, 10,11
11, 11,12
12, 12,13
27, 27,28
21, 21,22
18, 18,19
1, 1,2
3, 3,4
30, 30,1
4, 4,5
19, 19,20
5, 5,6
16, 16,17
2, 2,3
15, 15,16
6, 6,7
22, 22,23
28, 28,29
29, 29,30
23, 23,24
** ... 10 like lines cut
*elset, elset=aux_B31_section_A_00_00_-10
1, 2, 3, 4, 5, 6, 7, 8, 9, 10, 11, 12, 13, 14, 15
16, 17, 18, 19, 20, 21, 22, 23, 24, 25, 26, 27, 28, 29, 30
** Section: section_A
*Beam Section, elset=aux_B31_section_A_00_00_-10, material=mat_A, section=box
0.2, 0.8, 0.01, 0.01, 0.01, 0.01
0.0, 0.0, -1.0
*elset, elset=aux_B31_section_A_00_00_-10
1, 2, 3, 4, 5, 6, 7, 8, 9, 10, 11, 12, 13, 14, 15
16, 17, 18, 19, 20, 21, 22, 23, 24, 25, 26, 27, 28, 29, 30
*End Part
**
**
** ASSEMBLY
**
*Assembly, name=structural_model
**
*Instance, name=frame-1, part=frame
*End Instance
**
*End Assembly
**
**
** MATERIALS
**
*Material, name=mat_A
*Density
2500,
*Elastic
2610, 0.17
**
** INTERACTION PROPERTIES
**
**
** INTERACTIONS
**
**
** INITIAL CONDITIONS
**
** Name: fixed Type: BC/Rotation
*Nset, nset=_aux_fixed_frame-1, internal, instance=frame-1
1
*Boundary
_aux_fixed_frame-1, 1
_aux_fixed_frame-1, 2
_aux_fixed_frame-1, 3
_aux_fixed_frame-1, 4
_aux_fixed_frame-1, 5
_aux_fixed_frame-1, 6
** Name: roller Type: BC/Rotation
*Nset, nset=_aux_roller_frame-1, internal, instance=frame-1
11
*Boundary
_aux_roller_frame-1, 2
**
**------------------------------------------------------------------
**------------------------------------------------------------------
** PROBLEM
**------------------------------------------------------------------
**------------------------------------------------------------------
**
** STEP: step-1
**
*Step, name=step-1, nlgeom=NO, inc=100
*Static
1, 1, 1e-05, 1
**
** - Displacements
**   -------------
**
** - Loads
**   -----
** Name: pload Type: Concentrated Force
*Nset, nset=_aux_pload_frame-1, internal, instance=frame-1
6
*Cload, OP=MOD
_aux_pload_frame-1, 2, -10000
**
** - Output Requests
**   ---------------
**
*Restart, write, frequency=0
**
*End Step
**
