
 ANSYS Academic Research                           


 *------------------------------------------------------------------*
 |                                                                  |
 |   W E L C O M E   T O   T H E   A N S Y S (R)  P R O G R A M     |
 |                                                                  |
 *------------------------------------------------------------------*




 ***************************************************************
 *            ANSYS 2020 R2          LEGAL NOTICES             *
 ***************************************************************
 *                                                             *
 * Copyright 1971-2020 ANSYS, Inc.  All rights reserved.       *
 * Unauthorized use, distribution or duplication is            *
 * prohibited.                                                 *
 *                                                             *
 * Ansys is a registered trademark of ANSYS, Inc. or its       *
 * subsidiaries in the United States or other countries.       *
 * See the ANSYS, Inc. online documentation or the ANSYS, Inc. *
 * documentation CD or online help for the complete Legal      *
 * Notice.                                                     *
 *                                                             *
 ***************************************************************
 *                                                             *
 * THIS ANSYS SOFTWARE PRODUCT AND PROGRAM DOCUMENTATION       *
 * INCLUDE TRADE SECRETS AND CONFIDENTIAL AND PROPRIETARY      *
 * PRODUCTS OF ANSYS, INC., ITS SUBSIDIARIES, OR LICENSORS.    *
 * The software products and documentation are furnished by    *
 * ANSYS, Inc. or its subsidiaries under a software license    *
 * agreement that contains provisions concerning               *
 * non-disclosure, copying, length and nature of use,          *
 * compliance with exporting laws, warranties, disclaimers,    *
 * limitations of liability, and remedies, and other           *
 * provisions.  The software products and documentation may be *
 * used, disclosed, transferred, or copied only in accordance  *
 * with the terms and conditions of that software license      *
 * agreement.                                                  *
 *                                                             *
 * ANSYS, Inc. is a UL registered                              *
 * ISO 9001:2015 company.                                      *
 *                                                             *
 ***************************************************************
 *                                                             *
 * This product is subject to U.S. laws governing export and   *
 * re-export.                                                  *
 *                                                             *
 * For U.S. Government users, except as specifically granted   *
 * by the ANSYS, Inc. software license agreement, the use,     *
 * duplication, or disclosure by the United States Government  *
 * is subject to restrictions stated in the ANSYS, Inc.        *
 * software license agreement and FAR 12.212 (for non-DOD      *
 * licenses).                                                  *
 *                                                             *
 ***************************************************************

 2020 R2 
     
 Point Releases and Patches installed:   
     
 ANSYS, Inc. Products 2020 R2
 SpaceClaim 2020 R2  
 Customization Files for User Programmable Features 2020 R2  
 Mechanical Products 2020 R2 
 Additive 2020 R2
 Remote Solve Manager Standalone Services 2020 R2
 Viewer 2020 R2  
 ANSYS, Inc. License Manager 2020 R2 


          *****  ANSYS COMMAND LINE ARGUMENTS  *****
  BATCH MODE REQUESTED (-b)    = NOLIST
  INPUT FILE COPY MODE (-c)    = COPY
  DISTRIBUTED MEMORY PARALLEL REQUESTED
      16 PARALLEL PROCESSES REQUESTED WITH SINGLE THREAD PER PROCESS
    TOTAL OF    16 CORES REQUESTED
  DESIGNXPLORER REQUESTED
  INPUT FILE NAME              = C:\Users\robin\Documents\TMJoint_v2\_ProjectScratch\Scr39C4\dummy.dat
  OUTPUT FILE NAME             = C:\Users\robin\Documents\TMJoint_v2\_ProjectScratch\Scr39C4\solve.out
  START-UP FILE MODE           = NOREAD
  STOP FILE MODE               = NOREAD

 RELEASE= 2020 R2              BUILD= 20.2      UP20200601   VERSION=WINDOWS x64 
 CURRENT JOBNAME=file0  15:28:58  DEC 08, 2020 CP=      0.328


 PARAMETER _DS_PROGRESS =     999.0000000    

 /INPUT FILE= ds.dat  LINE=       0



 *** NOTE ***                            CP =       0.750   TIME= 15:28:59
 The /CONFIG,NOELDB command is not valid in a Distributed ANSYS          
 solution.  Command is ignored.                                          

 *GET  _WALLSTRT  FROM  ACTI  ITEM=TIME WALL  VALUE=  15.4830556    

 TITLE= 
 tmjoint_static_contact1--Static Structural (A5)                               


 SET PARAMETER DIMENSIONS ON  _WB_PROJECTSCRATCH_DIR
  TYPE=STRI  DIMENSIONS=      248        1        1

 PARAMETER _WB_PROJECTSCRATCH_DIR(1) = C:\Users\robin\Documents\TMJoint_v2\_ProjectScratch\Scr39C4\

 SET PARAMETER DIMENSIONS ON  _WB_SOLVERFILES_DIR
  TYPE=STRI  DIMENSIONS=      248        1        1

 PARAMETER _WB_SOLVERFILES_DIR(1) = C:\Users\robin\Documents\TMJoint_v2\tmjoint_static_contact1_files\dp0\SYS\MECH\

 SET PARAMETER DIMENSIONS ON  _WB_USERFILES_DIR
  TYPE=STRI  DIMENSIONS=      248        1        1

 PARAMETER _WB_USERFILES_DIR(1) = C:\Users\robin\Documents\TMJoint_v2\tmjoint_static_contact1_files\user_files\
 --- Data in consistent MKS units. See Solving Units in the help system for more

 MKS UNITS SPECIFIED FOR INTERNAL    
  LENGTH        (l)  = METER (M)
  MASS          (M)  = KILOGRAM (KG)
  TIME          (t)  = SECOND (SEC)
  TEMPERATURE   (T)  = CELSIUS (C)
  TOFFSET            = 273.0
  CHARGE        (Q)  = COULOMB
  FORCE         (f)  = NEWTON (N) (KG-M/SEC2)
  HEAT               = JOULE (N-M)

  PRESSURE           = PASCAL (NEWTON/M**2)
  ENERGY        (W)  = JOULE (N-M)
  POWER         (P)  = WATT (N-M/SEC)
  CURRENT       (i)  = AMPERE (COULOMBS/SEC)
  CAPACITANCE   (C)  = FARAD
  INDUCTANCE    (L)  = HENRY
  MAGNETIC FLUX      = WEBER
  RESISTANCE    (R)  = OHM
  ELECTRIC POTENTIAL = VOLT

 INPUT  UNITS ARE ALSO SET TO MKS 

 *** ANSYS - ENGINEERING ANALYSIS SYSTEM  RELEASE 2020 R2          20.2     ***
 DISTRIBUTED ANSYS Academic Research                           

 00207209  VERSION=WINDOWS x64   15:28:59  DEC 08, 2020 CP=      0.766

 tmjoint_static_contact1--Static Structural (A5)                               



          ***** ANSYS ANALYSIS DEFINITION (PREP7) *****
 *********** Nodes for the whole assembly ***********
 *********** Elements for Body 1 "rightMeshTenonMortise_empty\Corps" ***********
 *********** Elements for Body 2 "leftMeshTenonMortise_empty\Corps" ***********
 *********** Send User Defined Coordinate System(s) ***********
 *********** Set Reference Temperature ***********
 *********** Send Materials ***********
 *********** Create Contact "Frictional - rightMeshTenonMortise_empty\Corps To l
             Real Constant Set For Above Contact Is 4 & 3
 *********** Fixed Supports ***********
 *********** Define Pressure Using Surface Effect Elements ***********


 ***** ROUTINE COMPLETED *****  CP =         3.438


 --- Number of total nodes = 2467
 --- Number of contact elements = 182
 --- Number of spring elements = 0
 --- Number of bearing elements = 0
 --- Number of solid elements = 401
 --- Number of condensed parts = 0
 --- Number of total elements = 583

 *GET  _WALLBSOL  FROM  ACTI  ITEM=TIME WALL  VALUE=  15.4830556    
 ****************************************************************************
 *************************    SOLUTION       ********************************
 ****************************************************************************

 *****  ANSYS SOLUTION ROUTINE  *****


 PERFORM A STATIC ANALYSIS
  THIS WILL BE A NEW ANALYSIS

 PARAMETER _THICKRATIO =     1.000000000    

 USE PRECONDITIONED CONJUGATE GRADIENT SOLVER
  CONVERGENCE TOLERANCE = 1.00000E-08
  MAXIMUM ITERATION     = NumNode*DofPerNode*  1.0000    

 CONTACT INFORMATION PRINTOUT LEVEL       1

 DO NOT COMBINE ELEMENT MATRIX FILES (.emat) AFTER DISTRIBUTED PARALLEL SOLUTION

 DO NOT COMBINE ELEMENT SAVE DATA FILES (.esav) AFTER DISTRIBUTED PARALLEL SOLUTION

 NLDIAG: Nonlinear diagnostics CONT option is set to ON. 
         Writing frequency : each ITERATION.

 DEFINE RESTART CONTROL FOR LOADSTEP LAST
 AT FREQUENCY OF LAST AND NUMBER FOR OVERWRITE IS   -1

 DELETE RESTART FILES OF ENDSTEP
 ****************************************************
 ******************* SOLVE FOR LS 1 OF 1 ****************

 SELECT       FOR ITEM=TYPE COMPONENT=    
  IN RANGE         5 TO          5 STEP          1

         52  ELEMENTS (OF        583  DEFINED) SELECTED BY  ESEL  COMMAND.

 SELECT      ALL NODES HAVING ANY ELEMENT IN ELEMENT SET.

        191 NODES (OF       2467  DEFINED) SELECTED FROM
       52 SELECTED ELEMENTS BY NSLE COMMAND.

 GENERATE SURFACE LOAD PRES ON SURFACE DEFINED BY ALL SELECTED NODES
 VALUES=  300000.000      0.00000000    

 NUMBER OF PRES ELEMENT FACE LOADS STORED =         52

 ALL SELECT   FOR ITEM=NODE COMPONENT=    
  IN RANGE         1 TO       2467 STEP          1

       2467  NODES (OF       2467  DEFINED) SELECTED BY NSEL  COMMAND.

 ALL SELECT   FOR ITEM=ELEM COMPONENT=    
  IN RANGE         1 TO       1093 STEP          1

        583  ELEMENTS (OF        583  DEFINED) SELECTED BY  ESEL  COMMAND.

 ALL SELECT   FOR ITEM=ELEM COMPONENT=    
  IN RANGE         1 TO       1093 STEP          1

        583  ELEMENTS (OF        583  DEFINED) SELECTED BY  ESEL  COMMAND.

 PRINTOUT RESUMED BY /GOP

 USE AUTOMATIC TIME STEPPING THIS LOAD STEP

 USE       1 SUBSTEPS INITIALLY THIS LOAD STEP FOR ALL  DEGREES OF FREEDOM
 FOR AUTOMATIC TIME STEPPING:
   USE     10 SUBSTEPS AS A MAXIMUM
   USE      1 SUBSTEPS AS A MINIMUM

 TIME=  1.0000    

 ERASE THE CURRENT DATABASE OUTPUT CONTROL TABLE.


 WRITE ALL  ITEMS TO THE DATABASE WITH A FREQUENCY OF NONE
   FOR ALL APPLICABLE ENTITIES

 WRITE NSOL ITEMS TO THE DATABASE WITH A FREQUENCY OF ALL 
   FOR ALL APPLICABLE ENTITIES

 WRITE RSOL ITEMS TO THE DATABASE WITH A FREQUENCY OF ALL 
   FOR ALL APPLICABLE ENTITIES

 WRITE EANG ITEMS TO THE DATABASE WITH A FREQUENCY OF ALL 
   FOR ALL APPLICABLE ENTITIES

 WRITE ETMP ITEMS TO THE DATABASE WITH A FREQUENCY OF ALL 
   FOR ALL APPLICABLE ENTITIES

 WRITE VENG ITEMS TO THE DATABASE WITH A FREQUENCY OF ALL 
   FOR ALL APPLICABLE ENTITIES

 WRITE STRS ITEMS TO THE DATABASE WITH A FREQUENCY OF ALL 
   FOR ALL APPLICABLE ENTITIES

 WRITE EPEL ITEMS TO THE DATABASE WITH A FREQUENCY OF ALL 
   FOR ALL APPLICABLE ENTITIES

 WRITE EPPL ITEMS TO THE DATABASE WITH A FREQUENCY OF ALL 
   FOR ALL APPLICABLE ENTITIES

 WRITE CONT ITEMS TO THE DATABASE WITH A FREQUENCY OF ALL 
   FOR ALL APPLICABLE ENTITIES

 *GET  ANSINTER_  FROM  ACTI  ITEM=INT        VALUE=  0.00000000    

 *IF  ANSINTER_                         ( =   0.00000     )  NE  
      0                                 ( =   0.00000     )  THEN    

 *ENDIF

 *** NOTE ***                            CP =       3.672   TIME= 15:28:59
 The automatic domain decomposition logic has selected the MESH domain   
 decomposition method with 16 processes per solution.                    

 *****  ANSYS SOLVE    COMMAND  *****

 *** WARNING ***                         CP =       3.672   TIME= 15:28:59
 Element shape checking is currently inactive.  Issue SHPP,ON or         
 SHPP,WARN to reactivate, if desired.                                    

 *** NOTE ***                            CP =       3.922   TIME= 15:28:59
 The model data was checked and warning messages were found.             
  Please review output or errors file (                                  
 C:\Users\robin\Documents\TMJoint_v2\_ProjectScratch\Scr39C4\file0.err   
 ) for these warning messages.                                           

 *** SELECTION OF ELEMENT TECHNOLOGIES FOR APPLICABLE ELEMENTS ***
      --- GIVE SUGGESTIONS AND RESET THE KEY OPTIONS ---

 ELEMENT TYPE    1 IS SOLID186. KEYOPT(2)=0 IS SUGGESTED AND HAS BEEN RESET.
  KEYOPT(1-12)=    0    0    0    0    0    0    0    0    0    0    0    0

 ELEMENT TYPE    2 IS SOLID186. KEYOPT(2)=0 IS SUGGESTED AND HAS BEEN RESET.
  KEYOPT(1-12)=    0    0    0    0    0    0    0    0    0    0    0    0



 *** ANSYS - ENGINEERING ANALYSIS SYSTEM  RELEASE 2020 R2          20.2     ***
 DISTRIBUTED ANSYS Academic Research                           

 00207209  VERSION=WINDOWS x64   15:28:59  DEC 08, 2020 CP=      3.922

 tmjoint_static_contact1--Static Structural (A5)                               



                       S O L U T I O N   O P T I O N S

   PROBLEM DIMENSIONALITY. . . . . . . . . . . . .3-D                  
   DEGREES OF FREEDOM. . . . . . UX   UY   UZ  
   ANALYSIS TYPE . . . . . . . . . . . . . . . . .STATIC (STEADY-STATE)
   OFFSET TEMPERATURE FROM ABSOLUTE ZERO . . . . .  273.15    
   EQUATION SOLVER OPTION. . . . . . . . . . . . .PCG                
      TOLERANCE. . . . . . . . . . . . . . . . . . 1.00000E-08
   NEWTON-RAPHSON OPTION . . . . . . . . . . . . .PROGRAM CHOSEN   
   GLOBALLY ASSEMBLED MATRIX . . . . . . . . . . .SYMMETRIC  

 *** WARNING ***                         CP =       3.922   TIME= 15:28:59
 Material number 5 (used by element 1042) should normally have at least  
 one MP or one TB type command associated with it.  Output of energy by  
 material may not be available.                                          

 *** NOTE ***                            CP =       3.922   TIME= 15:28:59
 The step data was checked and warning messages were found.              
  Please review output or errors file (                                  
 C:\Users\robin\Documents\TMJoint_v2\_ProjectScratch\Scr39C4\file0.err   
 ) for these warning messages.                                           

 *** NOTE ***                            CP =       3.922   TIME= 15:28:59
 This nonlinear analysis defaults to using the full Newton-Raphson       
 solution procedure.  This can be modified using the NROPT command.      

 *** NOTE ***                            CP =       3.922   TIME= 15:28:59
 The conditions for direct assembly have been met.  No .emat or .erot    
 files will be produced.                                                 

 *** NOTE ***                            CP =       4.156   TIME= 15:28:59
 Symmetric Deformable- deformable contact pair identified by real        
 constant set 3 and contact element type 3 has been set up.  The         
 companion pair has real constant set ID 4.  Both pairs should have the  
 same behavior.                                                          
 ANSYS will keep the current pair and deactivate its companion pair,     
 resulting in asymmetric contact.                                        
 Small sliding logic is assumed
 Contact algorithm: Augmented Lagrange method
 Contact detection at: Gauss integration point
 Contact stiffness factor FKN                  1.0000    
 The resulting initial contact stiffness      0.24000E+13
 Default penetration tolerance factor FTOLN   0.10000    
 The resulting penetration tolerance          0.62954E-02
 Max. initial friction coefficient MU         0.10000E-07
 Default tangent stiffness factor FKT          1.0000    
 Default elastic slip factor SLTOL            0.10000E-01
 The resulting elastic slip tolerance         0.48387E-03
 Update contact stiffness at each iteration
 Default Max. friction stress TAUMAX          0.10000E+21
 Average contact surface length               0.48387E-01
 Average contact pair depth                   0.62954E-01
 Default pinball region factor PINB            1.0000    
 The resulting pinball region                 0.62954E-01
 *WARNING*: Initial penetration is included.

 *** NOTE ***                            CP =       4.172   TIME= 15:28:59
 Max.  Initial penetration 3.330669074E-16 was detected between contact  
 element 977 and target element 1033.                                    
 ****************************************
  

 *** NOTE ***                            CP =       4.172   TIME= 15:28:59
 Symmetric Deformable- deformable contact pair identified by real        
 constant set 4 and contact element type 3 has been set up.  The         
 companion pair has real constant set ID 3.  Both pairs should have the  
 same behavior.                                                          
 ANSYS will deactivate the current pair and keep its companion pair,     
 resulting in asymmetric contact.                                        
 Small sliding logic is assumed
 Contact algorithm: Augmented Lagrange method
 Contact detection at: Gauss integration point
 Contact stiffness factor FKN                  1.0000    
 The resulting initial contact stiffness      0.24000E+13
 Default penetration tolerance factor FTOLN   0.10000    
 The resulting penetration tolerance          0.66667E-02
 Max. initial friction coefficient MU         0.10000E-07
 Default tangent stiffness factor FKT          1.0000    
 Default elastic slip factor SLTOL            0.10000E-01
 The resulting elastic slip tolerance         0.66667E-03
 Update contact stiffness at each iteration
 Default Max. friction stress TAUMAX          0.10000E+21
 Average contact surface length               0.66667E-01
 Average contact pair depth                   0.66667E-01
 Default pinball region factor PINB            1.0000    
 The resulting pinball region                 0.66667E-01
 *WARNING*: Initial penetration is included.

 *** NOTE ***                            CP =       4.172   TIME= 15:28:59
 Max.  Initial penetration 2.220446049E-16 was detected between contact  
 element 1001 and target element 941.                                    
 ****************************************
  
  
  

  
  
     D I S T R I B U T E D   D O M A I N   D E C O M P O S E R
  
  ...Number of elements: 583
  ...Number of nodes:    2467
  ...Decompose to 16 CPU domains
  ...Element load balance ratio =     2.219


                      L O A D   S T E P   O P T I O N S

   LOAD STEP NUMBER. . . . . . . . . . . . . . . .     1
   TIME AT END OF THE LOAD STEP. . . . . . . . . .  1.0000    
   AUTOMATIC TIME STEPPING . . . . . . . . . . . .    ON
      INITIAL NUMBER OF SUBSTEPS . . . . . . . . .     1
      MAXIMUM NUMBER OF SUBSTEPS . . . . . . . . .    10
      MINIMUM NUMBER OF SUBSTEPS . . . . . . . . .     1
   MAXIMUM NUMBER OF EQUILIBRIUM ITERATIONS. . . .    15
   STEP CHANGE BOUNDARY CONDITIONS . . . . . . . .    NO
   TERMINATE ANALYSIS IF NOT CONVERGED . . . . . .YES (EXIT)  
   CONVERGENCE CONTROLS. . . . . . . . . . . . . .USE DEFAULTS
   PRINT OUTPUT CONTROLS . . . . . . . . . . . . .NO PRINTOUT
   DATABASE OUTPUT CONTROLS
      ITEM     FREQUENCY   COMPONENT
       ALL       NONE               
      NSOL        ALL               
      RSOL        ALL               
      EANG        ALL               
      ETMP        ALL               
      VENG        ALL               
      STRS        ALL               
      EPEL        ALL               
      EPPL        ALL               
      CONT        ALL               


 SOLUTION MONITORING INFO IS WRITTEN TO FILE= file.mntr                                                                                                                                                                                                                                                           
 MAXIMUM NUMBER OF EQUILIBRIUM ITERATIONS HAS BEEN MODIFIED              
  TO BE, NEQIT = 26, BY SOLUTION CONTROL LOGIC.                          


 *** NOTE ***                            CP =       6.172   TIME= 15:29:00
 The PCG solver has automatically set the level of difficulty for this   
 model to 2.                                                             

 Range of element maximum matrix coefficients in global coordinates
 Maximum = 2.238177194E+09 at element 977.                               
 Minimum = 683242952 at element 250.                                     

   *** ELEMENT MATRIX FORMULATION TIMES
     TYPE    NUMBER   ENAME      TOTAL CP  AVE CP

        1       272  SOLID186      0.141   0.000517
        2       129  SOLID186      0.047   0.000363
        3        65  CONTA174      0.016   0.000240
        4        65  TARGE170      0.000   0.000000
        5        52  SURF154       0.016   0.000300
 Time at end of element matrix formulation CP = 6.203125.                

 ALL CURRENT ANSYS DATA WRITTEN TO FILE NAME= file.rdb
  FOR POSSIBLE RESUME FROM THIS POINT
     FORCE CONVERGENCE VALUE  =   6349.      CRITERION=   32.39    
 curEqn=    153  totEqn=    153 Job CP sec=      6.391
      Factor Done= 100% Factor Wall sec=      0.025 rate=     191.2 Mflops
 Iteration=    40 Ratio=  0.294168     Limit=  1.000000E-08 Wall=     0.2
 Iteration=    85 Ratio=  7.170801E-04 Limit=  1.000000E-08 Wall=     0.4
 Iteration=   125 Ratio=  2.705537E-06 Limit=  1.000000E-08 Wall=     0.9

 DISTRIBUTED PCG SOLVER SOLUTION CONVERGED

 DISTRIBUTED PCG SOLVER SOLUTION STATISTICS

   NUMBER OF ITERATIONS=         163
   NUMBER OF EQUATIONS =        7401
   LEVEL OF CONVERGENCE=           1
   CALCULATED NORM     = 0.98611E-08
   SPECIFIED TOLERANCE = 0.10000E-07
   TOTAL CPU TIME (sec)=        1.14
   TOTAL WALL TIME(sec)=        1.23
   TOTAL MEMORY (GB)   =        0.00

     DISP CONVERGENCE VALUE   =  0.5906E-01  CRITERION=  0.3013E-02
    EQUIL ITER   1 COMPLETED.  NEW TRIANG MATRIX.  MAX DOF INC= -0.5906E-01
     DISP CONVERGENCE VALUE   =  0.5906E-01  CRITERION=  0.3075E-02
     LINE SEARCH PARAMETER =   1.000     SCALED MAX DOF INC = -0.5906E-01
     FORCE CONVERGENCE VALUE  =  0.1082E+06  CRITERION=   1406.    
    EQUIL ITER   2 COMPLETED.  NEW TRIANG MATRIX.  MAX DOF INC= -0.1728E-01
     DISP CONVERGENCE VALUE   =  0.1728E-01  CRITERION=  0.4056E-02
     LINE SEARCH PARAMETER =   1.000     SCALED MAX DOF INC = -0.1728E-01
     FORCE CONVERGENCE VALUE  =  0.2213E+06  CRITERION=   1435.    
    EQUIL ITER   3 COMPLETED.  NEW TRIANG MATRIX.  MAX DOF INC= -0.3957E-01
     DISP CONVERGENCE VALUE   =  0.3957E-01  CRITERION=  0.6282E-02
     LINE SEARCH PARAMETER =   1.000     SCALED MAX DOF INC = -0.3957E-01
     FORCE CONVERGENCE VALUE  =  0.2323E+06  CRITERION=   1464.    
    EQUIL ITER   4 COMPLETED.  NEW TRIANG MATRIX.  MAX DOF INC= -0.2346E-01
     DISP CONVERGENCE VALUE   =  0.2346E-01  CRITERION=  0.7708E-02
     LINE SEARCH PARAMETER =   1.000     SCALED MAX DOF INC = -0.2346E-01
     FORCE CONVERGENCE VALUE  =  0.1086E+06  CRITERION=   1494.    
    EQUIL ITER   5 COMPLETED.  NEW TRIANG MATRIX.  MAX DOF INC= -0.5101E-02
     DISP CONVERGENCE VALUE   =  0.5101E-02  CRITERION=  0.8153E-02 <<< CONVERGED
     LINE SEARCH PARAMETER =   1.000     SCALED MAX DOF INC = -0.5101E-02
     FORCE CONVERGENCE VALUE  =  0.1919E+05  CRITERION=   1525.    
    EQUIL ITER   6 COMPLETED.  NEW TRIANG MATRIX.  MAX DOF INC= -0.1528E-03
     DISP CONVERGENCE VALUE   =  0.1528E-03  CRITERION=  0.8329E-02 <<< CONVERGED
     LINE SEARCH PARAMETER =   1.000     SCALED MAX DOF INC = -0.1528E-03
     FORCE CONVERGENCE VALUE  =   9960.      CRITERION=   1556.    
    EQUIL ITER   7 COMPLETED.  NEW TRIANG MATRIX.  MAX DOF INC= -0.7390E-04
     DISP CONVERGENCE VALUE   =  0.7390E-04  CRITERION=  0.8503E-02 <<< CONVERGED
     LINE SEARCH PARAMETER =  0.9999     SCALED MAX DOF INC = -0.7390E-04
     FORCE CONVERGENCE VALUE  =   83.63      CRITERION=   1588.     <<< CONVERGED
    >>> SOLUTION CONVERGED AFTER EQUILIBRIUM ITERATION   7

   *** ELEMENT RESULT CALCULATION TIMES
     TYPE    NUMBER   ENAME      TOTAL CP  AVE CP

        1       272  SOLID186      0.141   0.000517
        2       129  SOLID186      0.047   0.000363
        3        65  CONTA174      0.016   0.000240
        5        52  SURF154       0.000   0.000000

   *** NODAL LOAD CALCULATION TIMES
     TYPE    NUMBER   ENAME      TOTAL CP  AVE CP

        1       272  SOLID186      0.000   0.000000
        2       129  SOLID186      0.016   0.000121
        3        65  CONTA174      0.000   0.000000
        5        52  SURF154       0.000   0.000000
 *** LOAD STEP     1   SUBSTEP     1  COMPLETED.    CUM ITER =      7
 *** TIME =   1.00000         TIME INC =   1.00000    


 *** ANSYS BINARY FILE STATISTICS
  BUFFER SIZE USED= 16384
        0.250 MB WRITTEN ON ELEMENT SAVED DATA FILE: file0.esav
        0.375 MB WRITTEN ON RESULTS FILE: file0.rst
 *************** Write FE CONNECTORS *********

 WRITE OUT CONSTRAINT EQUATIONS TO FILE= file.ce                                                                                                                                                                                                                                                             
 ****************************************************
 *************** FINISHED SOLVE FOR LS 1 *************

 *GET  _WALLASOL  FROM  ACTI  ITEM=TIME WALL  VALUE=  15.4852778    

 PRINTOUT RESUMED BY /GOP

 *GET  _PCGITER  FROM  ACTI  ITEM=SOLU CGIT  VALUE=  141.000000    

 FINISH SOLUTION PROCESSING


 ***** ROUTINE COMPLETED *****  CP =        12.344



 *** ANSYS - ENGINEERING ANALYSIS SYSTEM  RELEASE 2020 R2          20.2     ***
 DISTRIBUTED ANSYS Academic Research                           

 00207209  VERSION=WINDOWS x64   15:29:07  DEC 08, 2020 CP=     12.359

 tmjoint_static_contact1--Static Structural (A5)                               



          ***** ANSYS RESULTS INTERPRETATION (POST1) *****

 *** NOTE ***                            CP =      12.359   TIME= 15:29:07
 Reading results into the database (SET command) will update the current 
 displacement and force boundary conditions in the database with the     
 values from the results file for that load set.  Note that any          
 subsequent solutions will use these values unless action is taken to    
 either SAVE the current values or not overwrite them (/EXIT,NOSAVE).    

 Set Encoding of XML File to:ISO-8859-1

 Set Output of XML File to:
     PARM,     ,     ,     ,     ,     ,     ,     ,     ,     ,     ,     ,
         ,     ,     ,     ,     ,     ,     ,

 DATABASE WRITTEN ON FILE  parm.xml                                                                                                                                                                                                                                                            

 EXIT THE ANSYS POST1 DATABASE PROCESSOR


 ***** ROUTINE COMPLETED *****  CP =        12.594



 PRINTOUT RESUMED BY /GOP

 *GET  _WALLDONE  FROM  ACTI  ITEM=TIME WALL  VALUE=  15.4852778    

 PARAMETER _PREPTIME =     0.000000000    

 PARAMETER _SOLVTIME =     8.000000000    

 PARAMETER _POSTTIME =     0.000000000    

 PARAMETER _TOTALTIM =     8.000000000    

 *GET  _DLBRATIO  FROM  ACTI  ITEM=SOLU DLBR  VALUE=  2.21875000    

 *GET  _COMBTIME  FROM  ACTI  ITEM=SOLU COMB  VALUE= 0.480678000E-01
 --- Total number of nodes = 2467
 --- Total number of elements = 583
 --- Element load balance ratio = 2.21875
 --- Time to combine distributed files = 4.80678E-02

 EXIT ANSYS WITHOUT SAVING DATABASE


 NUMBER OF WARNING MESSAGES ENCOUNTERED=          2
 NUMBER OF ERROR   MESSAGES ENCOUNTERED=          0

+--------- D I S T R I B U T E D   A N S Y S   S T A T I S T I C S ------------+

Release: 2020 R2            Build: 20.2       Update: UP20200601   Platform: WINDOWS x64 
Date Run: 12/08/2020   Time: 15:29     Process ID: 2880
Operating System: Windows 10  (Build: 19042)

Processor Model: Intel(R) Core(TM) i9-9880H CPU @ 2.30GHz

Compiler: Intel(R) FORTRAN Compiler Version 19.0.0  (Build: 20190206)
          Intel(R) C/C++ Compiler Version 19.0.0  (Build: 20190206)
          Intel(R) Math Kernel Library Version 2020.0.0 Product Build 20191125

Number of machines requested            :    1
Total number of cores available         :   16
Number of physical cores available      :   16
Number of processes requested           :   16
Number of threads per process requested :    1
Total number of cores requested         :   16 (Distributed Memory Parallel)               
MPI Type: INTELMPI
MPI Version: Intel(R) MPI Library 2018 Update 3 for Windows* OS


GPU Acceleration: Not Requested

Job Name: file0
Input File: dummy.dat

  Core                Machine Name   Working Directory
 -----------------------------------------------------
     0             DESKTOP-6I1E0KC   C:\Users\robin\Documents\TMJoint_v2\_ProjectScratch\Scr39C4
     1             DESKTOP-6I1E0KC   C:\Users\robin\Documents\TMJoint_v2\_ProjectScratch\Scr39C4
     2             DESKTOP-6I1E0KC   C:\Users\robin\Documents\TMJoint_v2\_ProjectScratch\Scr39C4
     3             DESKTOP-6I1E0KC   C:\Users\robin\Documents\TMJoint_v2\_ProjectScratch\Scr39C4
     4             DESKTOP-6I1E0KC   C:\Users\robin\Documents\TMJoint_v2\_ProjectScratch\Scr39C4
     5             DESKTOP-6I1E0KC   C:\Users\robin\Documents\TMJoint_v2\_ProjectScratch\Scr39C4
     6             DESKTOP-6I1E0KC   C:\Users\robin\Documents\TMJoint_v2\_ProjectScratch\Scr39C4
     7             DESKTOP-6I1E0KC   C:\Users\robin\Documents\TMJoint_v2\_ProjectScratch\Scr39C4
     8             DESKTOP-6I1E0KC   C:\Users\robin\Documents\TMJoint_v2\_ProjectScratch\Scr39C4
     9             DESKTOP-6I1E0KC   C:\Users\robin\Documents\TMJoint_v2\_ProjectScratch\Scr39C4
    10             DESKTOP-6I1E0KC   C:\Users\robin\Documents\TMJoint_v2\_ProjectScratch\Scr39C4
    11             DESKTOP-6I1E0KC   C:\Users\robin\Documents\TMJoint_v2\_ProjectScratch\Scr39C4
    12             DESKTOP-6I1E0KC   C:\Users\robin\Documents\TMJoint_v2\_ProjectScratch\Scr39C4
    13             DESKTOP-6I1E0KC   C:\Users\robin\Documents\TMJoint_v2\_ProjectScratch\Scr39C4
    14             DESKTOP-6I1E0KC   C:\Users\robin\Documents\TMJoint_v2\_ProjectScratch\Scr39C4
    15             DESKTOP-6I1E0KC   C:\Users\robin\Documents\TMJoint_v2\_ProjectScratch\Scr39C4
 
Latency time from master to core     1 =    1.875 microseconds
Latency time from master to core     2 =    1.998 microseconds
Latency time from master to core     3 =    1.834 microseconds
Latency time from master to core     4 =    2.222 microseconds
Latency time from master to core     5 =    1.851 microseconds
Latency time from master to core     6 =    1.843 microseconds
Latency time from master to core     7 =    1.821 microseconds
Latency time from master to core     8 =    1.832 microseconds
Latency time from master to core     9 =    2.062 microseconds
Latency time from master to core    10 =    1.813 microseconds
Latency time from master to core    11 =    1.815 microseconds
Latency time from master to core    12 =    1.802 microseconds
Latency time from master to core    13 =   11.146 microseconds
Latency time from master to core    14 =    1.868 microseconds
Latency time from master to core    15 =    1.877 microseconds
 
Communication speed from master to core     1 =  3676.17 MB/sec
Communication speed from master to core     2 =  4518.63 MB/sec
Communication speed from master to core     3 =  3617.23 MB/sec
Communication speed from master to core     4 =  4016.57 MB/sec
Communication speed from master to core     5 =  5080.14 MB/sec
Communication speed from master to core     6 =  3953.49 MB/sec
Communication speed from master to core     7 =  3098.33 MB/sec
Communication speed from master to core     8 =  4917.42 MB/sec
Communication speed from master to core     9 =  4338.25 MB/sec
Communication speed from master to core    10 =  4148.26 MB/sec
Communication speed from master to core    11 =  5000.22 MB/sec
Communication speed from master to core    12 =  4107.81 MB/sec
Communication speed from master to core    13 =  3806.03 MB/sec
Communication speed from master to core    14 =  4773.98 MB/sec
Communication speed from master to core    15 =  4435.13 MB/sec

Total CPU time for main thread                    :        7.8 seconds
Total CPU time summed for all threads             :       14.5 seconds

Elapsed time spent obtaining a license            :        0.9 seconds
Elapsed time spent pre-processing model (/PREP7)  :        0.2 seconds
Elapsed time spent solution - preprocessing       :        0.1 seconds
Elapsed time spent computing solution             :        7.7 seconds
Elapsed time spent solution - postprocessing      :        0.0 seconds
Elapsed time spent post-processing model (/POST1) :        0.0 seconds
 
Equation solver used                              :            PCG (symmetric)
Equation solver computational rate                :       27.9 Gflops

Maximum total memory used                         :     1036.0 MB
Maximum total memory allocated                    :    17472.0 MB
Total physical memory available                   :         16 GB

Total amount of I/O written to disk               :        0.1 GB
Total amount of I/O read from disk                :        0.2 GB

+------ E N D   D I S T R I B U T E D   A N S Y S   S T A T I S T I C S -------+


 *---------------------------------------------------------------------------*
 |                                                                           |
 |                       DISTRIBUTED ANSYS RUN COMPLETED                     |
 |                                                                           |
 |---------------------------------------------------------------------------|
 |                                                                           |
 | Ansys 2020 R2               Build 20.2         UP20200601     WINDOWS x64 |
 |                                                                           |
 |---------------------------------------------------------------------------|
 |                                                                           |
 | Database Requested(-db)  1024 MB    Scratch Memory Requested      1024 MB |
 | Maximum Database Used       2 MB    Maximum Scratch Memory Used     44 MB |
 |                                                                           |
 |---------------------------------------------------------------------------|
 |                                                                           |
 |        CP Time      (sec) =         14.500       Time  =  15:29:08        |
 |        Elapsed Time (sec) =         12.000       Date  =  12/08/2020      |
 |                                                                           |
 *---------------------------------------------------------------------------*
